1H-Pyrimidine-2,4-dione
 OpenBabel06270619323D

 12 12  0  0  0  0  0  0  0  0999 V2000
    1.2910    0.4865   -0.0695 C   0  0  0  0  0
    1.1011   -0.8303    0.0346 C   0  0  0  0  0
   -0.1523   -1.3217    0.1035 N   0  0  0  0  0
   -1.2470   -0.5332    0.0719 C   0  0  0  0  0
   -1.0975    0.8027   -0.0326 N   0  0  0  0  0
    0.1201    1.3697   -0.1063 C   0  0  0  0  0
   -2.3620   -1.0247    0.1373 O   0  0  0  0  0
    0.2808    2.5755   -0.2012 O   0  0  0  0  0
    1.9580   -1.5032    0.0635 H   0  0  0  0  0
   -0.2784   -2.3116    0.1813 H   0  0  0  0  0
   -1.9096    1.3864   -0.0559 H   0  0  0  0  0
    2.2958    0.9039   -0.1265 H   0  0  0  0  0
  1  2  2  0  0  0
  6  1  1  0  0  0
  1 12  1  0  0  0
  2  3  1  0  0  0
  2  9  1  0  0  0
  3  4  1  0  0  0
  3 10  1  0  0  0
  4  5  1  0  0  0
  4  7  2  0  0  0
  5  6  1  0  0  0
  5 11  1  0  0  0
  6  8  2  0  0  0
M  END
$$$$
