2-Amino-3,7-dihydropurin-6-one
 OpenBabel06270619323D

 16 17  0  0  0  0  0  0  0  0999 V2000
    2.0844    1.3833    0.0080 N   0  0  0  0  0
    2.9248    0.4555    0.1849 C   0  0  0  0  0
    2.2642   -0.7074    0.2970 N   0  0  0  0  0
    0.9632   -0.3991    0.1716 C   0  0  0  0  0
    0.7425    0.8944   -0.0147 C   0  0  0  0  0
   -0.2055   -1.2422    0.2080 N   0  0  0  0  0
   -1.3774   -0.7604    0.0680 C   0  0  0  0  0
   -0.5948    1.4641   -0.1769 C   0  0  0  0  0
   -1.6042    0.5661   -0.1231 N   0  0  0  0  0
   -0.7529    2.6619   -0.3465 O   0  0  0  0  0
   -2.4230   -1.5831    0.1095 N   0  0  0  0  0
    4.0048    0.5839    0.2444 H   0  0  0  0  0
    2.5562   -1.3696   -0.5052 H   0  0  0  0  0
   -2.5415    0.9001   -0.2280 H   0  0  0  0  0
   -2.9656   -1.5377   -0.8236 H   0  0  0  0  0
   -3.0751   -1.3098    0.9265 H   0  0  0  0  0
  1  2  2  0  0  0
  1  5  1  0  0  0
  2  3  1  0  0  0
  2 12  1  0  0  0
  3  4  1  0  0  0
  3 13  1  0  0  0
  5  4  2  0  0  0
  4  6  1  0  0  0
  5  8  1  0  0  0
  6  7  2  0  0  0
  9  7  1  0  0  0
  7 11  1  0  0  0
  8  9  1  0  0  0
  8 10  2  0  0  0
  9 14  1  0  0  0
 11 15  1  0  0  0
 11 16  1  0  0  0
M  END
$$$$
