4-Amino-3H-pyrimidin-2-one
 OpenBabel06270619323D

 14 14  0  0  0  0  0  0  0  0999 V2000
    1.1466    0.0443   -0.0433 C   0  0  0  0  0
    1.0059   -1.2754   -0.1691 C   0  0  0  0  0
   -0.2463   -1.7631   -0.1656 N   0  0  0  0  0
   -1.2956   -0.9266   -0.0385 C   0  0  0  0  0
   -1.0753    0.4011    0.0848 N   0  0  0  0  0
   -0.0651    0.8689    0.0894 C   0  0  0  0  0
   -2.4342   -1.3658   -0.0348 O   0  0  0  0  0
    1.8714   -1.9298   -0.2704 H   0  0  0  0  0
   -0.4019   -2.7474   -0.2573 H   0  0  0  0  0
   -1.8799    0.9902    0.1771 H   0  0  0  0  0
    2.1368    0.4990   -0.0392 H   0  0  0  0  0
    0.0562    2.1889    0.2160 N   0  0  0  0  0
    0.5541    2.5953   -0.6525 H   0  0  0  0  0
    0.6272    2.4202    1.1036 H   0  0  0  0  0
  1  2  2  0  0  0
  6  1  1  0  0  0
  1 11  1  0  0  0
  2  3  1  0  0  0
  2  8  1  0  0  0
  3  4  1  0  0  0
  3  9  1  0  0  0
  4  5  1  0  0  0
  4  7  2  0  0  0
  5  6  2  0  0  0
  5 10  1  0  0  0
 12  6  1  0  0  0
 12 13  1  0  0  0
 12 14  1  0  0  0
M  END
$$$$
