Butyl butanoate
 OpenBabel06270619323D

 26 25  0  0  0  0  0  0  0  0999 V2000
    1.1315    0.4445    0.2613 C   0  0  0  0  0
    1.0053    1.2873    1.1355 O   0  0  0  0  0
    0.1010   -0.2324   -0.2521 O   0  0  0  0  0
   -1.1445    0.1540    0.3468 C   0  0  0  0  0
   -1.3312    1.2252    0.1729 H   0  0  0  0  0
   -1.1217   -0.0465    1.4292 H   0  0  0  0  0
   -2.2791   -0.6697   -0.2979 C   0  0  0  0  0
    2.4737    0.0937   -0.3177 C   0  0  0  0  0
   -3.6431   -0.2861    0.3179 C   0  0  0  0  0
   -2.0855   -1.7400   -0.1292 H   0  0  0  0  0
   -2.2942   -0.4730   -1.3807 H   0  0  0  0  0
   -3.8359    0.7845    0.1492 H   0  0  0  0  0
   -3.6272   -0.4826    1.4009 H   0  0  0  0  0
   -4.7760   -1.1114   -0.3287 C   0  0  0  0  0
   -4.6022   -2.1845   -0.1583 H   0  0  0  0  0
   -4.8111   -0.9164   -1.4110 H   0  0  0  0  0
    2.4604    0.2901   -1.4003 H   0  0  0  0  0
    2.6690   -0.9761   -0.1494 H   0  0  0  0  0
    3.5905    0.9309    0.3436 C   0  0  0  0  0
    3.3964    2.0012    0.1741 H   0  0  0  0  0
    4.9651    0.5650   -0.2560 C   0  0  0  0  0
    3.6052    0.7334    1.4266 H   0  0  0  0  0
    5.1770   -0.5011   -0.0849 H   0  0  0  0  0
    4.9681    0.7670   -1.3376 H   0  0  0  0  0
   -5.7395   -0.8267    0.1202 H   0  0  0  0  0
    5.7481    1.1698    0.2257 H   0  0  0  0  0
  1  2  2  0  0  0
  1  3  1  0  0  0
  1  8  1  0  0  0
  3  4  1  0  0  0
  4  5  1  0  0  0
  4  6  1  0  0  0
  4  7  1  0  0  0
  7  9  1  0  0  0
  7 10  1  0  0  0
  7 11  1  0  0  0
  8 17  1  0  0  0
  8 18  1  0  0  0
  8 19  1  0  0  0
  9 12  1  0  0  0
  9 13  1  0  0  0
  9 14  1  0  0  0
 14 15  1  0  0  0
 14 16  1  0  0  0
 14 25  1  0  0  0
 19 20  1  0  0  0
 19 21  1  0  0  0
 19 22  1  0  0  0
 21 23  1  0  0  0
 21 24  1  0  0  0
 21 26  1  0  0  0
M  END
$$$$
