Ethyl pentanoate
 OpenBabel06270619323D

 23 22  0  0  0  0  0  0  0  0999 V2000
   -0.9140    0.0435    0.1884 C   0  0  0  0  0
   -0.9961    0.7620    1.1720 O   0  0  0  0  0
   -1.9781   -0.5054   -0.4032 O   0  0  0  0  0
   -3.2010   -0.1462    0.2561 C   0  0  0  0  0
   -3.3396    0.9460    0.2342 H   0  0  0  0  0
   -3.1884   -0.4959    1.3002 H   0  0  0  0  0
   -4.3788   -0.8147   -0.4811 C   0  0  0  0  0
    0.4076   -0.2877   -0.4469 C   0  0  0  0  0
   -4.2530   -1.9077   -0.4626 H   0  0  0  0  0
   -4.4038   -0.4697   -1.5256 H   0  0  0  0  0
    0.4001    0.0573   -1.4918 H   0  0  0  0  0
    0.5507   -1.3786   -0.4302 H   0  0  0  0  0
    1.5662    0.3953    0.3126 C   0  0  0  0  0
    1.4196    1.4862    0.2943 H   0  0  0  0  0
    2.9192    0.0489   -0.3478 C   0  0  0  0  0
    1.5704    0.0483    1.3573 H   0  0  0  0  0
    3.0697   -1.0414   -0.3303 H   0  0  0  0  0
    4.0781    0.7308    0.4103 C   0  0  0  0  0
    2.9190    0.3954   -1.3926 H   0  0  0  0  0
    4.0978    0.3852    1.4547 H   0  0  0  0  0
    3.9470    1.8232    0.3916 H   0  0  0  0  0
    5.0332    0.4743   -0.0722 H   0  0  0  0  0
   -5.3257   -0.5490    0.0125 H   0  0  0  0  0
  1  2  2  0  0  0
  1  3  1  0  0  0
  1  8  1  0  0  0
  3  4  1  0  0  0
  4  5  1  0  0  0
  4  6  1  0  0  0
  4  7  1  0  0  0
  7  9  1  0  0  0
  7 10  1  0  0  0
  7 23  1  0  0  0
  8 11  1  0  0  0
  8 12  1  0  0  0
  8 13  1  0  0  0
 13 14  1  0  0  0
 13 15  1  0  0  0
 13 16  1  0  0  0
 15 17  1  0  0  0
 15 18  1  0  0  0
 15 19  1  0  0  0
 18 20  1  0  0  0
 18 21  1  0  0  0
 18 22  1  0  0  0
M  END
$$$$
