Ethyl acetate
 OpenBabel06270619323D

 14 13  0  0  0  0  0  0  0  0999 V2000
   -2.4366   -1.0249   -0.7343 H   0  0  0  0  0
   -2.6022   -0.0751   -1.2516 C   0  0  0  0  0
   -3.5732    0.3481   -0.9772 H   0  0  0  0  0
   -1.8189    0.6260   -0.9493 H   0  0  0  0  0
   -2.5380   -0.2844   -2.7358 C   0  0  0  0  0
   -3.5103   -1.1720   -3.1205 O   0  0  0  0  0
   -3.5793   -1.4822   -4.5204 C   0  0  0  0  0
   -2.5789   -1.5382   -4.9637 H   0  0  0  0  0
   -4.0254   -2.4766   -4.6133 H   0  0  0  0  0
   -4.4437   -0.4645   -5.2435 C   0  0  0  0  0
   -4.0164    0.5398   -5.1679 H   0  0  0  0  0
   -5.4409   -0.4195   -4.7958 H   0  0  0  0  0
   -4.5454   -0.7216   -6.3016 H   0  0  0  0  0
   -1.7299    0.2701   -3.4695 O   0  0  0  0  0
  1  2  1  0  0  0
  2  3  1  0  0  0
  2  4  1  0  0  0
  2  5  1  0  0  0
  5  6  1  0  0  0
  5 14  2  0  0  0
  6  7  1  0  0  0
  7  8  1  0  0  0
  7  9  1  0  0  0
  7 10  1  0  0  0
 10 11  1  0  0  0
 10 12  1  0  0  0
 10 13  1  0  0  0
M  END
$$$$
