Methyl pentanoate
 OpenBabel06270619323D

 20 19  0  0  0  0  0  0  0  0999 V2000
   -1.6279   -0.1223    0.1016 C   0  0  0  0  0
   -1.7182    0.7309    0.9702 O   0  0  0  0  0
   -2.6856   -0.7663   -0.3989 O   0  0  0  0  0
   -3.9115   -0.3313    0.2065 C   0  0  0  0  0
   -4.0697    0.7428    0.0252 H   0  0  0  0  0
   -3.8955   -0.5260    1.2897 H   0  0  0  0  0
   -0.3030   -0.5241   -0.4842 C   0  0  0  0  0
   -0.3176   -0.3354   -1.5682 H   0  0  0  0  0
   -0.1441   -1.5989   -0.3091 H   0  0  0  0  0
    0.8472    0.2785    0.1627 C   0  0  0  0  0
    0.6850    1.3528   -0.0140 H   0  0  0  0  0
    0.8587    0.0877    1.2468 H   0  0  0  0  0
    2.2037   -0.1418   -0.4458 C   0  0  0  0  0
   -4.7424   -0.8941   -0.2438 H   0  0  0  0  0
    2.3699   -1.2156   -0.2701 H   0  0  0  0  0
    3.3543    0.6596    0.1997 C   0  0  0  0  0
    2.1963    0.0486   -1.5300 H   0  0  0  0  0
    4.3120    0.3488   -0.2441 H   0  0  0  0  0
    3.3811    0.4704    1.2834 H   0  0  0  0  0
    3.2074    1.7356    0.0224 H   0  0  0  0  0
  1  2  2  0  0  0
  1  3  1  0  0  0
  1  7  1  0  0  0
  3  4  1  0  0  0
  4  5  1  0  0  0
  4  6  1  0  0  0
  4 14  1  0  0  0
  7  8  1  0  0  0
  7  9  1  0  0  0
  7 10  1  0  0  0
 10 11  1  0  0  0
 10 12  1  0  0  0
 10 13  1  0  0  0
 13 15  1  0  0  0
 13 16  1  0  0  0
 13 17  1  0  0  0
 16 18  1  0  0  0
 16 19  1  0  0  0
 16 20  1  0  0  0
M  END
$$$$
