Methyl formate
 OpenBabel06270619323D

  8  7  0  0  0  0  0  0  0  0999 V2000
    1.2933    0.0349    0.0251 C   0  0  0  0  0
    1.1183    1.1741    0.4271 O   0  0  0  0  0
    0.2731   -0.7748   -0.2719 O   0  0  0  0  0
   -0.9971   -0.1413   -0.0599 C   0  0  0  0  0
   -1.0956    0.7485   -0.7005 H   0  0  0  0  0
   -1.1123    0.1472    0.9961 H   0  0  0  0  0
   -1.7911   -0.8563   -0.3211 H   0  0  0  0  0
    2.3114   -0.3324   -0.0950 H   0  0  0  0  0
  1  2  2  0  0  0
  1  3  1  0  0  0
  1  8  1  0  0  0
  3  4  1  0  0  0
  4  5  1  0  0  0
  4  6  1  0  0  0
  4  7  1  0  0  0
M  END
$$$$
