Pentyl propanoate
 OpenBabel06270619323D

 26 25  0  0  0  0  0  0  0  0999 V2000
    2.5159    0.5767    0.1461 C   0  0  0  0  0
    2.3743    1.5102    0.9201 O   0  0  0  0  0
    1.4940   -0.1507   -0.3125 O   0  0  0  0  0
    0.2374    0.3007    0.2132 C   0  0  0  0  0
    0.0588    1.3467   -0.0807 H   0  0  0  0  0
    0.2363    0.2196    1.3113 H   0  0  0  0  0
   -0.8862   -0.5869   -0.3622 C   0  0  0  0  0
    3.8690    0.1629   -0.3614 C   0  0  0  0  0
   -2.2616   -0.1363    0.1780 C   0  0  0  0  0
   -0.7000   -1.6325   -0.0734 H   0  0  0  0  0
   -0.8769   -0.5097   -1.4601 H   0  0  0  0  0
   -2.4423    0.9103   -0.1110 H   0  0  0  0  0
   -2.2655   -0.2128    1.2760 H   0  0  0  0  0
   -3.3826   -1.0279   -0.4010 C   0  0  0  0  0
   -4.7584   -0.5801    0.1370 C   0  0  0  0  0
   -3.2066   -2.0754   -0.1123 H   0  0  0  0  0
   -3.3835   -0.9525   -1.4992 H   0  0  0  0  0
   -4.7764   -0.6607    1.2343 H   0  0  0  0  0
   -5.5445   -1.2244   -0.2845 H   0  0  0  0  0
   -4.9533    0.4631   -0.1537 H   0  0  0  0  0
    3.8844    0.2405   -1.4591 H   0  0  0  0  0
    4.0611   -0.8817   -0.0732 H   0  0  0  0  0
    4.9756    1.0635    0.2267 C   0  0  0  0  0
    4.7995    2.1100   -0.0643 H   0  0  0  0  0
    5.9549    0.7419   -0.1586 H   0  0  0  0  0
    4.9765    0.9855    1.3244 H   0  0  0  0  0
  1  2  2  0  0  0
  1  3  1  0  0  0
  1  8  1  0  0  0
  3  4  1  0  0  0
  4  5  1  0  0  0
  4  6  1  0  0  0
  4  7  1  0  0  0
  7  9  1  0  0  0
  7 10  1  0  0  0
  7 11  1  0  0  0
  8 21  1  0  0  0
  8 22  1  0  0  0
  8 23  1  0  0  0
  9 12  1  0  0  0
  9 13  1  0  0  0
  9 14  1  0  0  0
 14 15  1  0  0  0
 14 16  1  0  0  0
 14 17  1  0  0  0
 15 18  1  0  0  0
 15 19  1  0  0  0
 15 20  1  0  0  0
 23 24  1  0  0  0
 23 25  1  0  0  0
 23 26  1  0  0  0
M  END
$$$$
