Pentyl butanoate
 OpenBabel06270619323D

 29 28  0  0  0  0  0  0  0  0999 V2000
    1.8077    0.5259    0.2168 C   0  0  0  0  0
    1.6623    1.4173    1.0383 O   0  0  0  0  0
    0.7891   -0.1833   -0.2762 O   0  0  0  0  0
   -0.4688    0.2325    0.2752 C   0  0  0  0  0
   -0.6547    1.2912    0.0362 H   0  0  0  0  0
   -0.4664    0.0949    1.3677 H   0  0  0  0  0
   -1.5885   -0.6313   -0.3425 C   0  0  0  0  0
    3.1618    0.1472   -0.3149 C   0  0  0  0  0
   -2.9652   -0.2179    0.2236 C   0  0  0  0  0
   -1.3951   -1.6892   -0.1085 H   0  0  0  0  0
   -1.5827   -0.4975   -1.4350 H   0  0  0  0  0
   -3.1532    0.8411   -0.0105 H   0  0  0  0  0
   -2.9655   -0.3509    1.3162 H   0  0  0  0  0
   -4.0823   -1.0854   -0.3979 C   0  0  0  0  0
   -5.4593   -0.6747    0.1659 C   0  0  0  0  0
   -3.8990   -2.1454   -0.1641 H   0  0  0  0  0
   -4.0866   -0.9535   -1.4907 H   0  0  0  0  0
   -5.4737   -0.8120    1.2575 H   0  0  0  0  0
   -6.2426   -1.3014   -0.2864 H   0  0  0  0  0
   -5.6615    0.3809   -0.0702 H   0  0  0  0  0
    3.1690    0.2807   -1.4072 H   0  0  0  0  0
    3.3565   -0.9104   -0.0814 H   0  0  0  0  0
    4.2634    1.0253    0.3183 C   0  0  0  0  0
    4.0699    2.0833    0.0835 H   0  0  0  0  0
    5.6503    0.6304   -0.2326 C   0  0  0  0  0
    4.2576    0.8907    1.4109 H   0  0  0  0  0
    5.8616   -0.4232    0.0038 H   0  0  0  0  0
    6.4222    1.2649    0.2282 H   0  0  0  0  0
    5.6738    0.7696   -1.3239 H   0  0  0  0  0
  1  2  2  0  0  0
  1  3  1  0  0  0
  1  8  1  0  0  0
  3  4  1  0  0  0
  4  5  1  0  0  0
  4  6  1  0  0  0
  4  7  1  0  0  0
  7  9  1  0  0  0
  7 10  1  0  0  0
  7 11  1  0  0  0
  8 21  1  0  0  0
  8 22  1  0  0  0
  8 23  1  0  0  0
  9 12  1  0  0  0
  9 13  1  0  0  0
  9 14  1  0  0  0
 14 15  1  0  0  0
 14 16  1  0  0  0
 14 17  1  0  0  0
 15 18  1  0  0  0
 15 19  1  0  0  0
 15 20  1  0  0  0
 23 24  1  0  0  0
 23 25  1  0  0  0
 23 26  1  0  0  0
 25 27  1  0  0  0
 25 28  1  0  0  0
 25 29  1  0  0  0
M  END
$$$$
