Propyl propanoate
 OpenBabel06270619323D

 20 19  0  0  0  0  0  0  0  0999 V2000
    1.1838    0.2419    0.1344 C   0  0  0  0  0
    1.0883    1.0785    1.0184 O   0  0  0  0  0
    0.1276   -0.3737   -0.4033 O   0  0  0  0  0
   -1.1052    0.0691    0.1828 C   0  0  0  0  0
   -1.2336    1.1507    0.0212 H   0  0  0  0  0
   -1.1095   -0.1466    1.2625 H   0  0  0  0  0
   -2.2713   -0.6857   -0.4895 C   0  0  0  0  0
    2.5149   -0.1705   -0.4296 C   0  0  0  0  0
   -3.6227   -0.2415    0.1098 C   0  0  0  0  0
   -2.1405   -1.7674   -0.3333 H   0  0  0  0  0
   -2.2642   -0.4751   -1.5699 H   0  0  0  0  0
   -3.7666    0.8378   -0.0489 H   0  0  0  0  0
   -3.6429   -0.4558    1.1889 H   0  0  0  0  0
    2.5330    0.0411   -1.5094 H   0  0  0  0  0
    2.6566   -1.2506   -0.2735 H   0  0  0  0  0
    3.6644    0.5968    0.2573 C   0  0  0  0  0
   -4.4399   -0.7902   -0.3819 H   0  0  0  0  0
    3.5387    1.6784    0.0985 H   0  0  0  0  0
    4.6265    0.2786   -0.1714 H   0  0  0  0  0
    3.6625    0.3841    1.3370 H   0  0  0  0  0
  1  2  2  0  0  0
  1  3  1  0  0  0
  1  8  1  0  0  0
  3  4  1  0  0  0
  4  5  1  0  0  0
  4  6  1  0  0  0
  4  7  1  0  0  0
  7  9  1  0  0  0
  7 10  1  0  0  0
  7 11  1  0  0  0
  8 14  1  0  0  0
  8 15  1  0  0  0
  8 16  1  0  0  0
  9 12  1  0  0  0
  9 13  1  0  0  0
  9 17  1  0  0  0
 16 18  1  0  0  0
 16 19  1  0  0  0
 16 20  1  0  0  0
M  END
$$$$
