Propyl butanoate
 OpenBabel06270619323D

 23 22  0  0  0  0  0  0  0  0999 V2000
    0.4673    0.2284    0.2162 C   0  0  0  0  0
    0.3641    1.0111    1.1475 O   0  0  0  0  0
   -0.5837   -0.3613   -0.3594 O   0  0  0  0  0
   -1.8207    0.0384    0.2482 C   0  0  0  0  0
   -1.9558    1.1268    0.1500 H   0  0  0  0  0
   -1.8260   -0.2403    1.3135 H   0  0  0  0  0
   -2.9801   -0.6832   -0.4703 C   0  0  0  0  0
    1.8022   -0.1417   -0.3676 C   0  0  0  0  0
   -4.3358   -0.2836    0.1504 C   0  0  0  0  0
   -2.8426   -1.7714   -0.3775 H   0  0  0  0  0
   -2.9719   -0.4095   -1.5365 H   0  0  0  0  0
   -4.4866    0.8021    0.0548 H   0  0  0  0  0
   -4.3571   -0.5610    1.2150 H   0  0  0  0  0
    1.8167    0.1325   -1.4332 H   0  0  0  0  0
    1.9460   -1.2288   -0.2747 H   0  0  0  0  0
    2.9440    0.5931    0.3685 C   0  0  0  0  0
   -5.1483   -0.8078   -0.3749 H   0  0  0  0  0
    2.8015    1.6807    0.2744 H   0  0  0  0  0
    4.3109    0.2079   -0.2366 C   0  0  0  0  0
    2.9309    0.3178    1.4343 H   0  0  0  0  0
    4.4714   -0.8764   -0.1404 H   0  0  0  0  0
    5.1119    0.7396    0.2988 H   0  0  0  0  0
    4.3420    0.4868   -1.3005 H   0  0  0  0  0
  1  2  2  0  0  0
  1  3  1  0  0  0
  1  8  1  0  0  0
  3  4  1  0  0  0
  4  5  1  0  0  0
  4  6  1  0  0  0
  4  7  1  0  0  0
  7  9  1  0  0  0
  7 10  1  0  0  0
  7 11  1  0  0  0
  8 14  1  0  0  0
  8 15  1  0  0  0
  8 16  1  0  0  0
  9 12  1  0  0  0
  9 13  1  0  0  0
  9 17  1  0  0  0
 16 18  1  0  0  0
 16 19  1  0  0  0
 16 20  1  0  0  0
 19 21  1  0  0  0
 19 22  1  0  0  0
 19 23  1  0  0  0
M  END
$$$$
