Propyl pentanoate
 OpenBabel06270619323D

 26 25  0  0  0  0  0  0  0  0999 V2000
   -0.2028    0.0836    0.1419 C   0  0  0  0  0
   -0.2842    0.8023    1.1255 O   0  0  0  0  0
   -1.2673   -0.4650   -0.4493 O   0  0  0  0  0
   -2.4900   -0.1056    0.2103 C   0  0  0  0  0
   -2.6245    0.9871    0.1881 H   0  0  0  0  0
   -2.4733   -0.4551    1.2543 H   0  0  0  0  0
   -3.6664   -0.7761   -0.5299 C   0  0  0  0  0
    1.1183   -0.2480   -0.4940 C   0  0  0  0  0
   -5.0075   -0.4176    0.1452 C   0  0  0  0  0
   -3.5297   -1.8682   -0.5131 H   0  0  0  0  0
   -3.6803   -0.4316   -1.5753 H   0  0  0  0  0
   -5.1575    0.6723    0.1258 H   0  0  0  0  0
   -5.0068   -0.7657    1.1890 H   0  0  0  0  0
    1.1105    0.0970   -1.5389 H   0  0  0  0  0
    1.2610   -1.3390   -0.4773 H   0  0  0  0  0
    2.2775    0.4346    0.2650 C   0  0  0  0  0
   -5.8324   -0.9045   -0.3965 H   0  0  0  0  0
    2.1313    1.5255    0.2466 H   0  0  0  0  0
    3.6300    0.0877   -0.3961 C   0  0  0  0  0
    2.2820    0.0877    1.3096 H   0  0  0  0  0
    3.7802   -1.0026   -0.3786 H   0  0  0  0  0
    4.7896    0.7693    0.3614 C   0  0  0  0  0
    3.6296    0.4342   -1.4409 H   0  0  0  0  0
    4.8096    0.4237    1.4059 H   0  0  0  0  0
    4.6588    1.8617    0.3427 H   0  0  0  0  0
    5.7444    0.5124   -0.1214 H   0  0  0  0  0
  1  2  2  0  0  0
  1  3  1  0  0  0
  1  8  1  0  0  0
  3  4  1  0  0  0
  4  5  1  0  0  0
  4  6  1  0  0  0
  4  7  1  0  0  0
  7  9  1  0  0  0
  7 10  1  0  0  0
  7 11  1  0  0  0
  8 14  1  0  0  0
  8 15  1  0  0  0
  8 16  1  0  0  0
  9 12  1  0  0  0
  9 13  1  0  0  0
  9 17  1  0  0  0
 16 18  1  0  0  0
 16 19  1  0  0  0
 16 20  1  0  0  0
 19 21  1  0  0  0
 19 22  1  0  0  0
 19 23  1  0  0  0
 22 24  1  0  0  0
 22 25  1  0  0  0
 22 26  1  0  0  0
M  END
$$$$
