Propyl formate
 OpenBabel06270619323D

 14 13  0  0  0  0  0  0  0  0999 V2000
    2.6628    0.5254   -0.0022 C   0  0  0  0  0
    2.4732    1.6315    0.4780 O   0  0  0  0  0
    1.6568   -0.3119   -0.2696 O   0  0  0  0  0
    0.3811    0.2502    0.0732 C   0  0  0  0  0
    0.2052    1.1710   -0.5046 H   0  0  0  0  0
    0.3437    0.4762    1.1502 H   0  0  0  0  0
   -0.7189   -0.7775   -0.2663 C   0  0  0  0  0
    3.6826    0.2115   -0.2194 H   0  0  0  0  0
   -2.1133   -0.2165    0.0859 C   0  0  0  0  0
   -0.5416   -1.7006    0.3065 H   0  0  0  0  0
   -0.6795   -1.0086   -1.3418 H   0  0  0  0  0
   -2.3038    0.7025   -0.4884 H   0  0  0  0  0
   -2.1657    0.0098    1.1615 H   0  0  0  0  0
   -2.8824   -0.9630   -0.1631 H   0  0  0  0  0
  1  2  2  0  0  0
  1  3  1  0  0  0
  1  8  1  0  0  0
  3  4  1  0  0  0
  4  5  1  0  0  0
  4  6  1  0  0  0
  4  7  1  0  0  0
  7  9  1  0  0  0
  7 10  1  0  0  0
  7 11  1  0  0  0
  9 12  1  0  0  0
  9 13  1  0  0  0
  9 14  1  0  0  0
M  END
$$$$
