N,N-Dimethylformamide
 OpenBabel06270619323D

 12 11  0  0  0  0  0  0  0  0999 V2000
   -0.3317    1.3691    0.3939 C   0  0  0  0  0
   -1.4817    1.7473    0.5467 O   0  0  0  0  0
   -0.0133    0.0895    0.1078 N   0  0  0  0  0
    1.3801   -0.2315   -0.1646 C   0  0  0  0  0
   -1.0970   -0.8549   -0.1196 C   0  0  0  0  0
    0.4565    2.1154    0.4865 H   0  0  0  0  0
    2.0375    0.2836    0.5518 H   0  0  0  0  0
    1.6378    0.0908   -1.1844 H   0  0  0  0  0
    1.5540   -1.3142   -0.0785 H   0  0  0  0  0
   -0.7192   -1.8878   -0.1324 H   0  0  0  0  0
   -1.5747   -0.6392   -1.0868 H   0  0  0  0  0
   -1.8482   -0.7682    0.6797 H   0  0  0  0  0
  1  2  2  0  0  0
  1  3  1  0  0  0
  1  6  1  0  0  0
  3  4  1  0  0  0
  3  5  1  0  0  0
  4  7  1  0  0  0
  4  8  1  0  0  0
  4  9  1  0  0  0
  5 10  1  0  0  0
  5 11  1  0  0  0
  5 12  1  0  0  0
M  END
$$$$
