2-Methylpropanal
 OpenBabel06270619323D

 13 12  0  0  0  0  0  0  0  0999 V2000
    1.1982   -0.1900    0.7133 C   0  0  0  0  0
   -0.2839    0.0273    0.3353 C   0  0  0  0  0
   -0.8900   -1.2449   -0.1919 C   0  0  0  0  0
   -0.2182   -2.2577   -0.3001 O   0  0  0  0  0
   -0.4013    1.1298   -0.7394 C   0  0  0  0  0
    1.7727   -0.5007   -0.1723 H   0  0  0  0  0
    1.2728   -0.9702    1.4857 H   0  0  0  0  0
    1.6223    0.7453    1.1081 H   0  0  0  0  0
   -0.8372    0.3427    1.2334 H   0  0  0  0  0
   -1.9413   -1.2690   -0.4757 H   0  0  0  0  0
   -1.4608    1.2935   -0.9872 H   0  0  0  0  0
    0.1386    0.8245   -1.6483 H   0  0  0  0  0
    0.0281    2.0695   -0.3609 H   0  0  0  0  0
  1  2  1  0  0  0
  1  6  1  0  0  0
  1  7  1  0  0  0
  1  8  1  0  0  0
  2  3  1  0  0  0
  2  5  1  0  0  0
  2  9  1  0  0  0
  3  4  2  0  0  0
  3 10  1  0  0  0
  5 11  1  0  0  0
  5 12  1  0  0  0
  5 13  1  0  0  0
M  END
$$$$
