(2R)-2-Methylbutanal
 OpenBabel06270619323D

 16 15  0  0  0  0  0  0  0  0999 V2000
   -0.2970   -0.5994    0.1910 C   0  0  0  0  0
   -1.6333   -1.1503   -0.2242 C   0  0  0  0  0
   -1.8014   -2.3560   -0.3061 O   0  0  0  0  0
    0.2543    0.2687   -0.9654 C   0  0  0  0  0
   -0.4828    0.2087    1.4946 C   0  0  0  0  0
   -2.4577   -0.4761   -0.4527 H   0  0  0  0  0
    0.2948   -0.3549   -1.8717 H   0  0  0  0  0
   -0.4202    1.1186   -1.1508 H   0  0  0  0  0
    1.6773    0.7977   -0.6804 C   0  0  0  0  0
    0.3924   -1.4363    0.3819 H   0  0  0  0  0
    1.6666    1.5163    0.1516 H   0  0  0  0  0
    2.3474   -0.0392   -0.4332 H   0  0  0  0  0
   -0.9777   -0.4273    2.2439 H   0  0  0  0  0
   -1.1095    1.0928    1.3047 H   0  0  0  0  0
    0.4894    0.5293    1.8954 H   0  0  0  0  0
    2.0574    1.3073   -1.5787 H   0  0  0  0  0
  1  2  1  0  0  0
  1  4  1  0  0  0
  1  5  1  0  0  0
  1 10  1  0  0  0
  2  3  2  0  0  0
  2  6  1  0  0  0
  4  7  1  0  0  0
  4  8  1  0  0  0
  4  9  1  0  0  0
  5 13  1  0  0  0
  5 14  1  0  0  0
  5 15  1  0  0  0
  9 11  1  0  0  0
  9 12  1  0  0  0
  9 16  1  0  0  0
M  END
$$$$
