Acetaldehyde
 OpenBabel06270619323D

  7  6  0  0  0  0  0  0  0  0999 V2000
   -1.9206    0.0131   -0.9723 H   0  0  0  0  0
   -2.5663    0.0289   -1.8546 C   0  0  0  0  0
   -2.3860    0.9477   -2.4203 H   0  0  0  0  0
   -2.3458   -0.8355   -2.4867 H   0  0  0  0  0
   -3.9965   -0.0345   -1.4182 C   0  0  0  0  0
   -4.2765   -0.9287   -0.8389 H   0  0  0  0  0
   -4.8194    0.8328   -1.6740 O   0  0  0  0  0
  1  2  1  0  0  0
  2  3  1  0  0  0
  2  4  1  0  0  0
  2  5  1  0  0  0
  5  6  1  0  0  0
  5  7  2  0  0  0
M  END
$$$$
