Hexanal
 OpenBabel06270619323D

 19 18  0  0  0  0  0  0  0  0999 V2000
   -1.4245   -0.6803    1.2856 C   0  0  0  0  0
   -2.5425   -1.5705    0.8205 C   0  0  0  0  0
   -2.5533   -2.7519    1.1254 O   0  0  0  0  0
   -0.6139   -0.1882    0.0670 C   0  0  0  0  0
   -1.8490    0.1821    1.8214 H   0  0  0  0  0
   -3.3120   -1.1795    0.1562 H   0  0  0  0  0
   -0.2262   -1.0688   -0.4657 H   0  0  0  0  0
   -1.2771    0.3796   -0.6032 H   0  0  0  0  0
    0.5523    0.7148    0.5305 C   0  0  0  0  0
   -0.7655   -1.2383    1.9680 H   0  0  0  0  0
    0.1420    1.5320    1.1433 H   0  0  0  0  0
    1.2510    0.1279    1.1460 H   0  0  0  0  0
    1.3150    1.3489   -0.6570 C   0  0  0  0  0
    2.0182    0.2946   -1.5402 C   0  0  0  0  0
    2.0833    2.0234   -0.2485 H   0  0  0  0  0
    0.6200    1.9384   -1.2744 H   0  0  0  0  0
    2.6369    0.8098   -2.2903 H   0  0  0  0  0
    1.2806   -0.3299   -2.0644 H   0  0  0  0  0
    2.6649   -0.3443   -0.9203 H   0  0  0  0  0
  1  2  1  0  0  0
  1  4  1  0  0  0
  1  5  1  0  0  0
  1 10  1  0  0  0
  2  3  2  0  0  0
  2  6  1  0  0  0
  4  7  1  0  0  0
  4  8  1  0  0  0
  4  9  1  0  0  0
  9 11  1  0  0  0
  9 12  1  0  0  0
  9 13  1  0  0  0
 13 14  1  0  0  0
 13 15  1  0  0  0
 13 16  1  0  0  0
 14 17  1  0  0  0
 14 18  1  0  0  0
 14 19  1  0  0  0
M  END
$$$$
