Pentanal
 OpenBabel06270619323D

 16 15  0  0  0  0  0  0  0  0999 V2000
   -1.0046   -0.6904    0.9347 C   0  0  0  0  0
   -2.1556   -1.5215    0.4415 C   0  0  0  0  0
   -2.1892   -2.7196    0.6696 O   0  0  0  0  0
   -0.2093   -0.1410   -0.2692 C   0  0  0  0  0
   -1.3932    0.1474    1.5330 H   0  0  0  0  0
   -2.9298   -1.0700   -0.1776 H   0  0  0  0  0
    0.1632   -0.9851   -0.8696 H   0  0  0  0  0
   -0.8739    0.4779   -0.8912 H   0  0  0  0  0
    0.9830    0.7124    0.2175 C   0  0  0  0  0
   -0.3455   -1.3066    1.5650 H   0  0  0  0  0
    0.6111    1.5562    0.8186 H   0  0  0  0  0
    1.6498    0.0945    0.8382 H   0  0  0  0  0
    1.7784    1.2613   -0.9862 C   0  0  0  0  0
    2.1658    0.4278   -1.5910 H   0  0  0  0  0
    2.6229    1.8659   -0.6229 H   0  0  0  0  0
    1.1268    1.8909   -1.6105 H   0  0  0  0  0
  1  2  1  0  0  0
  1  4  1  0  0  0
  1  5  1  0  0  0
  1 10  1  0  0  0
  2  3  2  0  0  0
  2  6  1  0  0  0
  4  7  1  0  0  0
  4  8  1  0  0  0
  4  9  1  0  0  0
  9 11  1  0  0  0
  9 12  1  0  0  0
  9 13  1  0  0  0
 13 14  1  0  0  0
 13 15  1  0  0  0
 13 16  1  0  0  0
M  END
$$$$
