1,4-Xylene
 OpenBabel06270619323D

 18 18  0  0  0  0  0  0  0  0999 V2000
    1.3136    0.4665   -0.0098 C   0  0  0  0  0
    1.0593   -0.9042    0.0587 C   0  0  0  0  0
   -0.2552   -1.3747    0.0749 C   0  0  0  0  0
   -1.3136   -0.4665    0.0098 C   0  0  0  0  0
   -1.0593    0.9042   -0.0587 C   0  0  0  0  0
    0.2552    1.3747   -0.0749 C   0  0  0  0  0
    0.5333    2.8769   -0.1226 C   0  0  0  0  0
   -0.5333   -2.8769    0.1226 C   0  0  0  0  0
   -2.3377   -0.8229    0.0213 H   0  0  0  0  0
   -1.8876    1.6024   -0.1084 H   0  0  0  0  0
    0.6138    3.1963   -1.1721 H   0  0  0  0  0
    1.4747    3.1034    0.3996 H   0  0  0  0  0
   -0.2855    3.4281    0.3633 H   0  0  0  0  0
    1.8876   -1.6024    0.1084 H   0  0  0  0  0
    2.3377    0.8229   -0.0213 H   0  0  0  0  0
    0.2855   -3.4281   -0.3633 H   0  0  0  0  0
   -1.4747   -3.1034   -0.3996 H   0  0  0  0  0
   -0.6138   -3.1963    1.1721 H   0  0  0  0  0
  1  2  2  0  0  0
  6  1  1  0  0  0
  1 15  1  0  0  0
  2  3  1  0  0  0
  2 14  1  0  0  0
  3  4  2  0  0  0
  3  8  1  0  0  0
  4  5  1  0  0  0
  4  9  1  0  0  0
  5  6  2  0  0  0
  5 10  1  0  0  0
  6  7  1  0  0  0
  7 11  1  0  0  0
  7 12  1  0  0  0
  7 13  1  0  0  0
  8 16  1  0  0  0
  8 17  1  0  0  0
  8 18  1  0  0  0
M  END
$$$$
