1H-Pyrrole
 OpenBabel06270619323D

 10 10  0  0  0  0  0  0  0  0999 V2000
   -1.0157    0.6307   -0.1119 N   0  0  0  0  0
    0.2114    1.1200    0.0788 C   0  0  0  0  0
    1.1133    0.1568    0.2735 C   0  0  0  0  0
    0.3506   -1.0852    0.1955 C   0  0  0  0  0
   -0.9044   -0.6972   -0.0354 C   0  0  0  0  0
    0.4491    2.1834    0.0794 H   0  0  0  0  0
    2.1815    0.2703    0.4546 H   0  0  0  0  0
    0.7245   -2.1024    0.3055 H   0  0  0  0  0
   -1.7421   -1.3853   -0.1449 H   0  0  0  0  0
   -1.3682    0.9089   -1.0950 H   0  0  0  0  0
  1  2  1  0  0  0
  5  1  1  0  0  0
  1 10  1  0  0  0
  2  3  2  0  0  0
  2  6  1  0  0  0
  3  4  1  0  0  0
  3  7  1  0  0  0
  4  5  2  0  0  0
  4  8  1  0  0  0
  5  9  1  0  0  0
M  END
$$$$
