Aniline
 OpenBabel06270619323D

 14 14  0  0  0  0  0  0  0  0999 V2000
   -1.9402    0.0065   -0.8951 H   0  0  0  0  0
   -2.4967    0.0348   -1.8262 C   0  0  0  0  0
   -3.8813   -0.0710   -1.8136 C   0  0  0  0  0
   -4.4079   -0.1780   -0.8709 H   0  0  0  0  0
   -4.5939   -0.0331   -3.0069 C   0  0  0  0  0
   -5.6770   -0.1045   -2.9759 H   0  0  0  0  0
   -3.9303    0.0887   -4.2293 C   0  0  0  0  0
   -4.6563    0.1941   -5.4293 N   0  0  0  0  0
   -5.6419   -0.0611   -5.4253 H   0  0  0  0  0
   -4.1510    0.1269   -6.3106 H   0  0  0  0  0
   -2.5410    0.2254   -4.2259 C   0  0  0  0  0
   -2.0011    0.3585   -5.1586 H   0  0  0  0  0
   -1.8273    0.1874   -3.0332 C   0  0  0  0  0
   -0.7466    0.2829   -3.0449 H   0  0  0  0  0
  1  2  1  0  0  0
  2  3  2  0  0  0
  2 13  1  0  0  0
  3  4  1  0  0  0
  3  5  1  0  0  0
  5  6  1  0  0  0
  5  7  2  0  0  0
  7  8  1  0  0  0
  7 11  1  0  0  0
  8  9  1  0  0  0
  8 10  1  0  0  0
 11 12  1  0  0  0
 11 13  2  0  0  0
 13 14  1  0  0  0
M  END
$$$$
