Benzene
 OpenBabel06270619323D

 12 12  0  0  0  0  0  0  0  0999 V2000
   -1.9568   -0.0599   -0.9518 H   0  0  0  0  0
   -2.4891    0.0122   -1.8946 C   0  0  0  0  0
   -3.8784    0.0694   -1.9060 C   0  0  0  0  0
   -4.4303    0.0419   -0.9722 H   0  0  0  0  0
   -4.5605    0.1618   -3.1143 C   0  0  0  0  0
   -5.6446    0.2063   -3.1232 H   0  0  0  0  0
   -3.8533    0.1971   -4.3110 C   0  0  0  0  0
   -4.3856    0.2691   -5.2538 H   0  0  0  0  0
   -2.4640    0.1399   -4.2995 C   0  0  0  0  0
   -1.9122    0.1671   -5.2333 H   0  0  0  0  0
   -1.7819    0.0475   -3.0913 C   0  0  0  0  0
   -0.6978    0.0028   -3.0823 H   0  0  0  0  0
  1  2  1  0  0  0
  2  3  2  0  0  0
  2 11  1  0  0  0
  3  4  1  0  0  0
  3  5  1  0  0  0
  5  6  1  0  0  0
  5  7  2  0  0  0
  7  8  1  0  0  0
  7  9  1  0  0  0
  9 10  1  0  0  0
  9 11  2  0  0  0
 11 12  1  0  0  0
M  END
$$$$
