Toluene
 OpenBabel06270619323D

 15 15  0  0  0  0  0  0  0  0999 V2000
    1.1919   -0.1849    0.0569 C   0  0  0  0  0
    0.9684   -1.5626    0.0645 C   0  0  0  0  0
   -0.3345   -2.0591    0.0056 C   0  0  0  0  0
   -1.4131   -1.1761   -0.0607 C   0  0  0  0  0
   -1.1886    0.2015   -0.0682 C   0  0  0  0  0
    0.1145    0.7007   -0.0156 C   0  0  0  0  0
    0.3584    2.2094    0.0035 C   0  0  0  0  0
    2.2067    0.1952    0.0989 H   0  0  0  0  0
    1.8077   -2.2475    0.1164 H   0  0  0  0  0
   -0.5086   -3.1297    0.0115 H   0  0  0  0  0
   -2.4263   -1.5603   -0.1062 H   0  0  0  0  0
   -2.0304    0.8829   -0.1239 H   0  0  0  0  0
    0.4713    2.5702   -1.0295 H   0  0  0  0  0
    1.2736    2.4369    0.5699 H   0  0  0  0  0
   -0.4911    2.7233    0.4772 H   0  0  0  0  0
  1  2  2  0  0  0
  6  1  1  0  0  0
  1  8  1  0  0  0
  2  3  1  0  0  0
  2  9  1  0  0  0
  3  4  2  0  0  0
  3 10  1  0  0  0
  4  5  1  0  0  0
  4 11  1  0  0  0
  5  6  2  0  0  0
  5 12  1  0  0  0
  6  7  1  0  0  0
  7 13  1  0  0  0
  7 14  1  0  0  0
  7 15  1  0  0  0
M  END
$$$$
