1,1,2,2-Tetrachloroethane
 OpenBabel06270619323D

  8  7  0  0  0  0  0  0  0  0999 V2000
    0.7095    0.0795   -0.2919 C   0  0  0  0  0
   -0.7095   -0.0795    0.2919 C   0  0  0  0  0
    1.3902    1.6369    0.1940 Cl  0  0  0  0  0
    1.7550   -1.2155    0.3041 Cl  0  0  0  0  0
   -1.7550    1.2155   -0.3041 Cl  0  0  0  0  0
   -1.3902   -1.6369   -0.1940 Cl  0  0  0  0  0
    0.6645    0.0314   -1.3902 H   0  0  0  0  0
   -0.6645   -0.0314    1.3902 H   0  0  0  0  0
  1  2  1  0  0  0
  1  3  1  0  0  0
  1  4  1  0  0  0
  1  7  1  0  0  0
  2  5  1  0  0  0
  2  6  1  0  0  0
  2  8  1  0  0  0
M  END
$$$$
