Dichloromethane
 OpenBabel06270619323D

  5  4  0  0  0  0  0  0  0  0999 V2000
    0.1325   -0.0786   -0.0006 C   0  0  0  0  0
   -0.0087    1.6827    0.0033 Cl  0  0  0  0  0
   -1.4810   -0.7989    0.0032 Cl  0  0  0  0  0
    0.6815   -0.4043    0.8952 H   0  0  0  0  0
    0.6758   -0.4009   -0.9011 H   0  0  0  0  0
  1  2  1  0  0  0
  1  3  1  0  0  0
  1  4  1  0  0  0
  1  5  1  0  0  0
M  END
$$$$
