Butanone
 OpenBabel06270619323D

 13 12  0  0  0  0  0  0  0  0999 V2000
   -2.0002   -0.0315   -0.9402 H   0  0  0  0  0
   -2.5349   -0.0891   -1.8931 C   0  0  0  0  0
   -2.2215    0.7484   -2.5231 H   0  0  0  0  0
   -2.2873   -1.0376   -2.3782 H   0  0  0  0  0
   -4.0171   -0.0149   -1.6523 C   0  0  0  0  0
   -4.4658    0.0935   -0.5185 O   0  0  0  0  0
   -4.8995   -0.0819   -2.8800 C   0  0  0  0  0
   -4.6295    0.7461   -3.5430 H   0  0  0  0  0
   -4.6946   -1.0232   -3.3997 H   0  0  0  0  0
   -6.3802   -0.0001   -2.5429 C   0  0  0  0  0
   -6.6818   -0.8234   -1.8879 H   0  0  0  0  0
   -6.6170    0.9376   -2.0306 H   0  0  0  0  0
   -6.9833   -0.0517   -3.4539 H   0  0  0  0  0
  1  2  1  0  0  0
  2  3  1  0  0  0
  2  4  1  0  0  0
  2  5  1  0  0  0
  5  6  2  0  0  0
  5  7  1  0  0  0
  7  8  1  0  0  0
  7  9  1  0  0  0
  7 10  1  0  0  0
 10 11  1  0  0  0
 10 12  1  0  0  0
 10 13  1  0  0  0
M  END
$$$$
