Hexan-3-one
 OpenBabel06270619323D

 19 18  0  0  0  0  0  0  0  0999 V2000
   -1.9901   -0.0465   -1.0419 H   0  0  0  0  0
   -2.5548    0.0267   -1.9758 C   0  0  0  0  0
   -2.2994    0.9787   -2.4510 H   0  0  0  0  0
   -2.2252   -0.7830   -2.6339 H   0  0  0  0  0
   -4.0460   -0.0646   -1.7010 C   0  0  0  0  0
   -4.2618   -1.0098   -1.1915 H   0  0  0  0  0
   -4.3350    0.7351   -1.0109 H   0  0  0  0  0
   -4.8634    0.0347   -2.9887 C   0  0  0  0  0
   -4.6582    0.9879   -3.4874 H   0  0  0  0  0
   -4.5847   -0.7759   -3.6703 H   0  0  0  0  0
   -6.3560   -0.0525   -2.7463 C   0  0  0  0  0
   -6.8270   -0.1899   -1.6240 O   0  0  0  0  0
   -7.2299    0.0415   -3.9794 C   0  0  0  0  0
   -7.0274    0.9978   -4.4720 H   0  0  0  0  0
   -6.9487   -0.7662   -4.6626 H   0  0  0  0  0
   -8.7140   -0.0591   -3.6622 C   0  0  0  0  0
   -8.9505   -1.0114   -3.1776 H   0  0  0  0  0
   -9.0290    0.7447   -2.9896 H   0  0  0  0  0
   -9.3068    0.0128   -4.5786 H   0  0  0  0  0
  1  2  1  0  0  0
  2  3  1  0  0  0
  2  4  1  0  0  0
  2  5  1  0  0  0
  5  6  1  0  0  0
  5  7  1  0  0  0
  5  8  1  0  0  0
  8  9  1  0  0  0
  8 10  1  0  0  0
  8 11  1  0  0  0
 11 12  2  0  0  0
 11 13  1  0  0  0
 13 14  1  0  0  0
 13 15  1  0  0  0
 13 16  1  0  0  0
 16 17  1  0  0  0
 16 18  1  0  0  0
 16 19  1  0  0  0
M  END
$$$$
