Propanone
 OpenBabel06270619323D

 10  9  0  0  0  0  0  0  0  0999 V2000
   -1.9379    0.0425   -1.0131 H   0  0  0  0  0
   -2.4933    0.0309   -1.9557 C   0  0  0  0  0
   -2.2752    0.9514   -2.5048 H   0  0  0  0  0
   -2.1769   -0.8387   -2.5390 H   0  0  0  0  0
   -3.9678   -0.0556   -1.6778 C   0  0  0  0  0
   -4.4046   -0.0937   -0.5356 O   0  0  0  0  0
   -4.8794   -0.0919   -2.8721 C   0  0  0  0  0
   -4.7443    0.8165   -3.4664 H   0  0  0  0  0
   -4.6569   -0.9744   -3.4787 H   0  0  0  0  0
   -5.9213   -0.1445   -2.5421 H   0  0  0  0  0
  1  2  1  0  0  0
  2  3  1  0  0  0
  2  4  1  0  0  0
  2  5  1  0  0  0
  5  6  2  0  0  0
  5  7  1  0  0  0
  7  8  1  0  0  0
  7  9  1  0  0  0
  7 10  1  0  0  0
M  END
$$$$
