(2R)-2-Amino-3-carbamoyl-propanoic acid
 OpenBabel06270619323D

 17 16  0  0  0  0  0  0  0  0999 V2000
   -2.9816    1.2469   -2.7116 H   0  0  0  0  0
   -3.6925    0.6989   -2.0856 C   0  0  0  0  0
   -4.5607   -0.0803   -3.0683 C   0  0  0  0  0
   -4.4480   -0.0409   -4.2847 O   0  0  0  0  0
   -5.5272   -0.8125   -2.4646 O   0  0  0  0  0
   -6.0454   -1.2963   -3.1416 H   0  0  0  0  0
   -4.4354    1.7473   -1.2410 C   0  0  0  0  0
   -3.7039    2.4132   -0.7690 H   0  0  0  0  0
   -5.0575    2.3762   -1.8882 H   0  0  0  0  0
   -5.3180    1.2019   -0.1370 C   0  0  0  0  0
   -5.2358    0.0717    0.3194 O   0  0  0  0  0
   -6.2298    2.1244    0.3077 N   0  0  0  0  0
   -6.8881    1.8779    1.0386 H   0  0  0  0  0
   -6.2843    3.0658   -0.0668 H   0  0  0  0  0
   -2.9284   -0.2503   -1.2675 N   0  0  0  0  0
   -3.5491   -0.7075   -0.5974 H   0  0  0  0  0
   -2.2387    0.2504   -0.7079 H   0  0  0  0  0
  1  2  1  0  0  0
  2  3  1  0  0  0
  2  7  1  0  0  0
  2 15  1  0  0  0
  3  4  2  0  0  0
  3  5  1  0  0  0
  5  6  1  0  0  0
  7  8  1  0  0  0
  7  9  1  0  0  0
  7 10  1  0  0  0
 10 11  2  0  0  0
 10 12  1  0  0  0
 12 13  1  0  0  0
 12 14  1  0  0  0
 15 16  1  0  0  0
 15 17  1  0  0  0
M  END
$$$$
