(2R)-2-Amino-4-carbamoyl-butanoic acid
 OpenBabel06270619323D

 20 19  0  0  0  0  0  0  0  0999 V2000
   -2.6925    0.8683   -2.5580 H   0  0  0  0  0
   -3.5923    0.5901   -1.9997 C   0  0  0  0  0
   -3.2206   -0.4826   -1.0676 N   0  0  0  0  0
   -2.5724   -0.1111   -0.3723 H   0  0  0  0  0
   -4.0302   -0.7896   -0.5287 H   0  0  0  0  0
   -4.5787    0.0686   -3.0393 C   0  0  0  0  0
   -5.3737    0.7819   -3.6336 O   0  0  0  0  0
   -4.5010   -1.2731   -3.2505 O   0  0  0  0  0
   -3.8098   -1.7067   -2.7066 H   0  0  0  0  0
   -4.1420    1.8346   -1.2859 C   0  0  0  0  0
   -3.3602    2.2449   -0.6367 H   0  0  0  0  0
   -4.3419    2.6117   -2.0324 H   0  0  0  0  0
   -5.4170    1.6082   -0.4643 C   0  0  0  0  0
   -6.2040    1.1700   -1.0872 H   0  0  0  0  0
   -5.2325    0.9255    0.3707 H   0  0  0  0  0
   -5.9368    2.9049    0.1186 C   0  0  0  0  0
   -5.3127    3.9552    0.1073 O   0  0  0  0  0
   -7.1785    2.7775    0.6854 N   0  0  0  0  0
   -7.6321    3.5821    1.1042 H   0  0  0  0  0
   -7.6833    1.8976    0.7063 H   0  0  0  0  0
  1  2  1  0  0  0
  2  3  1  0  0  0
  2  6  1  0  0  0
  2 10  1  0  0  0
  3  4  1  0  0  0
  3  5  1  0  0  0
  6  7  2  0  0  0
  6  8  1  0  0  0
  8  9  1  0  0  0
 10 11  1  0  0  0
 10 12  1  0  0  0
 10 13  1  0  0  0
 13 14  1  0  0  0
 13 15  1  0  0  0
 13 16  1  0  0  0
 16 17  2  0  0  0
 16 18  1  0  0  0
 18 19  1  0  0  0
 18 20  1  0  0  0
M  END
$$$$
