(2R)-2-Amino-3-(1H-indol-3-yl)propanoic acid
 OpenBabel06270619323D

 27 28  0  0  0  0  0  0  0  0999 V2000
   -2.3185    0.1352   -1.1054 H   0  0  0  0  0
   -3.4022    0.1596   -1.2653 C   0  0  0  0  0
   -3.6462    0.0037   -2.7031 N   0  0  0  0  0
   -2.9047    0.4553   -3.2388 H   0  0  0  0  0
   -4.5169    0.4680   -2.9642 H   0  0  0  0  0
   -3.9030    1.5274   -0.8240 C   0  0  0  0  0
   -3.3505    2.2367    0.0034 O   0  0  0  0  0
   -5.0497    1.8938   -1.4504 O   0  0  0  0  0
   -5.3331    2.7756   -1.1292 H   0  0  0  0  0
   -4.0836   -0.9670   -0.4770 C   0  0  0  0  0
   -5.1583   -1.0019   -0.6872 H   0  0  0  0  0
   -3.6849   -1.9340   -0.8042 H   0  0  0  0  0
   -3.8536   -0.8431    0.9872 C   0  0  0  0  0
   -4.6805   -0.1891    1.9531 C   0  0  0  0  0
   -4.0512   -0.3053    3.1847 C   0  0  0  0  0
   -4.5669    0.2256    4.3531 C   0  0  0  0  0
   -4.0565    0.1234    5.3056 H   0  0  0  0  0
   -5.7695    0.8967    4.2599 C   0  0  0  0  0
   -6.2100    1.3285    5.1527 H   0  0  0  0  0
   -6.4205    1.0260    3.0502 C   0  0  0  0  0
   -7.3651    1.5588    3.0090 H   0  0  0  0  0
   -5.8931    0.4921    1.8900 C   0  0  0  0  0
   -6.4247    0.6097    0.9513 H   0  0  0  0  0
   -2.8952   -1.0104    2.9861 N   0  0  0  0  0
   -2.7660   -1.3443    1.6706 C   0  0  0  0  0
   -1.9058   -1.9032    1.3282 H   0  0  0  0  0
   -2.2301   -1.2485    3.7112 H   0  0  0  0  0
  1  2  1  0  0  0
  2  3  1  0  0  0
  2  6  1  0  0  0
  2 10  1  0  0  0
  3  4  1  0  0  0
  3  5  1  0  0  0
  6  7  2  0  0  0
  6  8  1  0  0  0
  8  9  1  0  0  0
 10 11  1  0  0  0
 10 12  1  0  0  0
 10 13  1  0  0  0
 13 14  1  0  0  0
 13 25  2  0  0  0
 14 15  1  0  0  0
 14 22  2  0  0  0
 15 16  2  0  0  0
 15 24  1  0  0  0
 16 17  1  0  0  0
 16 18  1  0  0  0
 18 19  1  0  0  0
 18 20  2  0  0  0
 20 21  1  0  0  0
 20 22  1  0  0  0
 22 23  1  0  0  0
 24 25  1  0  0  0
 24 27  1  0  0  0
 25 26  1  0  0  0
M  END
$$$$
