(2R)-2-Amino-4-methylsulfanyl-butanoic acid
 OpenBabel06270619323D

 20 19  0  0  0  0  0  0  0  0999 V2000
   -2.6287    0.7099   -2.2930 H   0  0  0  0  0
   -3.6213    0.4023   -1.9479 C   0  0  0  0  0
   -3.4354   -0.7942   -1.1169 N   0  0  0  0  0
   -2.7065   -1.3785   -1.5280 H   0  0  0  0  0
   -3.0809   -0.5435   -0.1940 H   0  0  0  0  0
   -4.2705    1.5600   -1.1732 C   0  0  0  0  0
   -3.5941    1.8703   -0.3682 H   0  0  0  0  0
   -4.3585    2.4194   -1.8479 H   0  0  0  0  0
   -5.6513    1.2457   -0.5888 C   0  0  0  0  0
   -6.3621    1.0033   -1.3843 H   0  0  0  0  0
   -5.6048    0.4009    0.1040 H   0  0  0  0  0
   -6.2649    2.6989    0.3199 S   0  0  0  0  0
   -7.8771    2.0468    0.8262 C   0  0  0  0  0
   -8.4790    1.7952   -0.0512 H   0  0  0  0  0
   -7.7498    1.1590    1.4515 H   0  0  0  0  0
   -8.4083    2.8062    1.4055 H   0  0  0  0  0
   -4.4142    0.0517   -3.2029 C   0  0  0  0  0
   -4.3701    0.7045   -4.2353 O   0  0  0  0  0
   -5.1829   -1.0638   -3.0754 O   0  0  0  0  0
   -5.0962   -1.4922   -2.1974 H   0  0  0  0  0
  1  2  1  0  0  0
  2  3  1  0  0  0
  2  6  1  0  0  0
  2 17  1  0  0  0
  3  4  1  0  0  0
  3  5  1  0  0  0
  6  7  1  0  0  0
  6  8  1  0  0  0
  6  9  1  0  0  0
  9 10  1  0  0  0
  9 11  1  0  0  0
  9 12  1  0  0  0
 12 13  1  0  0  0
 13 14  1  0  0  0
 13 15  1  0  0  0
 13 16  1  0  0  0
 17 18  2  0  0  0
 17 19  1  0  0  0
 19 20  1  0  0  0
M  END
$$$$
