(2R)-2-Amino-3-methyl-butanoic acid
 OpenBabel06270619323D

 19 18  0  0  0  0  0  0  0  0999 V2000
   -3.0090    1.2657   -2.0496 H   0  0  0  0  0
   -3.7822    0.5733   -1.6985 C   0  0  0  0  0
   -3.1236   -0.6548   -1.2348 N   0  0  0  0  0
   -2.2979   -0.4261   -0.6829 H   0  0  0  0  0
   -3.7455   -1.1698   -0.6111 H   0  0  0  0  0
   -4.6092    1.2677   -0.5899 C   0  0  0  0  0
   -5.3912    0.5878   -0.2329 H   0  0  0  0  0
   -5.2998    2.5260   -1.1194 C   0  0  0  0  0
   -4.5718    3.2401   -1.5181 H   0  0  0  0  0
   -5.8592    3.0291   -0.3247 H   0  0  0  0  0
   -6.0108    2.2952   -1.9172 H   0  0  0  0  0
   -3.7455    1.6492    0.6144 C   0  0  0  0  0
   -2.9161    2.3010    0.3214 H   0  0  0  0  0
   -3.3252    0.7677    1.1062 H   0  0  0  0  0
   -4.3360    2.1807    1.3668 H   0  0  0  0  0
   -4.6081    0.1938   -2.9211 C   0  0  0  0  0
   -4.4007    0.6074   -4.0525 O   0  0  0  0  0
   -5.5898   -0.7010   -2.6449 O   0  0  0  0  0
   -6.0801   -0.9183   -3.4653 H   0  0  0  0  0
  1  2  1  0  0  0
  2  3  1  0  0  0
  2  6  1  0  0  0
  2 16  1  0  0  0
  3  4  1  0  0  0
  3  5  1  0  0  0
  6  7  1  0  0  0
  6  8  1  0  0  0
  6 12  1  0  0  0
  8  9  1  0  0  0
  8 10  1  0  0  0
  8 11  1  0  0  0
 12 13  1  0  0  0
 12 14  1  0  0  0
 12 15  1  0  0  0
 16 17  2  0  0  0
 16 18  1  0  0  0
 18 19  1  0  0  0
M  END
$$$$
