(2R)-2-Amino-4-methyl-pentanoic acid
 OpenBabel06270619323D

 22 21  0  0  0  0  0  0  0  0999 V2000
   -2.7635    0.7064   -2.4828 H   0  0  0  0  0
   -3.6727    0.4403   -1.9328 C   0  0  0  0  0
   -3.3268   -0.7792   -1.1955 N   0  0  0  0  0
   -4.1027   -1.4396   -1.2110 H   0  0  0  0  0
   -3.1535   -0.5605   -0.2148 H   0  0  0  0  0
   -4.0382    1.6410   -1.0351 C   0  0  0  0  0
   -3.2012    1.7910   -0.3438 H   0  0  0  0  0
   -4.0346    2.5373   -1.6651 H   0  0  0  0  0
   -5.3341    1.6662   -0.1923 C   0  0  0  0  0
   -5.2841    2.5897    0.3953 H   0  0  0  0  0
   -5.4864    0.5285    0.8132 C   0  0  0  0  0
   -5.6288   -0.4378    0.3234 H   0  0  0  0  0
   -6.3623    0.6951    1.4477 H   0  0  0  0  0
   -4.6155    0.4651    1.4722 H   0  0  0  0  0
   -6.5900    1.7941   -1.0486 C   0  0  0  0  0
   -6.8202    0.8681   -1.5810 H   0  0  0  0  0
   -6.4853    2.5931   -1.7889 H   0  0  0  0  0
   -7.4579    2.0354   -0.4271 H   0  0  0  0  0
   -4.7062    0.1248   -3.0018 C   0  0  0  0  0
   -4.9655    0.8539   -3.9475 O   0  0  0  0  0
   -5.3535   -1.0479   -2.7894 O   0  0  0  0  0
   -6.0051   -1.2005   -3.5053 H   0  0  0  0  0
  1  2  1  0  0  0
  2  3  1  0  0  0
  2  6  1  0  0  0
  2 19  1  0  0  0
  3  4  1  0  0  0
  3  5  1  0  0  0
  6  7  1  0  0  0
  6  8  1  0  0  0
  6  9  1  0  0  0
  9 10  1  0  0  0
  9 11  1  0  0  0
  9 15  1  0  0  0
 11 12  1  0  0  0
 11 13  1  0  0  0
 11 14  1  0  0  0
 15 16  1  0  0  0
 15 17  1  0  0  0
 15 18  1  0  0  0
 19 20  2  0  0  0
 19 21  1  0  0  0
 21 22  1  0  0  0
M  END
$$$$
