(2R)-2-Amino-5-(diaminomethylideneamino)pentanoic acid
 OpenBabel06270619323D

 26 25  0  0  0  0  0  0  0  0999 V2000
   -3.3522    1.5740   -2.5640 H   0  0  0  0  0
   -3.7077    0.6312   -2.1346 C   0  0  0  0  0
   -2.5486   -0.2242   -1.8569 N   0  0  0  0  0
   -1.9804    0.1941   -1.1206 H   0  0  0  0  0
   -2.8592   -1.1237   -1.4886 H   0  0  0  0  0
   -4.5408   -0.0540   -3.2086 C   0  0  0  0  0
   -4.8563    0.4603   -4.2716 O   0  0  0  0  0
   -4.8675   -1.3325   -2.8960 O   0  0  0  0  0
   -5.3885   -1.7277   -3.6262 H   0  0  0  0  0
   -4.4706    0.9440   -0.8385 C   0  0  0  0  0
   -4.8317    0.0215   -0.3694 H   0  0  0  0  0
   -3.7773    1.3989   -0.1220 H   0  0  0  0  0
   -5.6509    1.8922   -1.0546 C   0  0  0  0  0
   -6.3707    1.4455   -1.7483 H   0  0  0  0  0
   -5.3072    2.8214   -1.5222 H   0  0  0  0  0
   -6.3442    2.2201    0.2637 C   0  0  0  0  0
   -6.7279    1.3060    0.7289 H   0  0  0  0  0
   -5.6226    2.6686    0.9551 H   0  0  0  0  0
   -7.4538    3.1386    0.0382 N   0  0  0  0  0
   -7.7926    3.2422   -0.9137 H   0  0  0  0  0
   -8.1285    3.7740    1.0448 C   0  0  0  0  0
   -9.1129    4.5939    0.5856 N   0  0  0  0  0
   -9.2858    4.7037   -0.4091 H   0  0  0  0  0
   -9.6991    5.1229    1.2250 H   0  0  0  0  0
   -7.8819    3.6260    2.2985 N   0  0  0  0  0
   -8.5186    4.2297    2.8255 H   0  0  0  0  0
  1  2  1  0  0  0
  2  3  1  0  0  0
  2  6  1  0  0  0
  2 10  1  0  0  0
  3  4  1  0  0  0
  3  5  1  0  0  0
  6  7  2  0  0  0
  6  8  1  0  0  0
  8  9  1  0  0  0
 10 11  1  0  0  0
 10 12  1  0  0  0
 10 13  1  0  0  0
 13 14  1  0  0  0
 13 15  1  0  0  0
 13 16  1  0  0  0
 16 17  1  0  0  0
 16 18  1  0  0  0
 16 19  1  0  0  0
 19 20  1  0  0  0
 19 21  1  0  0  0
 21 22  1  0  0  0
 21 25  2  0  0  0
 22 23  1  0  0  0
 22 24  1  0  0  0
 25 26  1  0  0  0
M  END
$$$$
