(2R)-2,6-Diaminohexanoic acid
 OpenBabel06270619323D

 24 23  0  0  0  0  0  0  0  0999 V2000
   -2.8044    0.8977   -2.2478 H   0  0  0  0  0
   -3.7253    0.4887   -1.8197 C   0  0  0  0  0
   -4.6842    0.2922   -2.9890 C   0  0  0  0  0
   -5.4779    1.1433   -3.3629 O   0  0  0  0  0
   -4.5797   -0.9248   -3.5883 O   0  0  0  0  0
   -3.8921   -1.4939   -3.1820 H   0  0  0  0  0
   -4.2899    1.4805   -0.7901 C   0  0  0  0  0
   -4.4849    2.4334   -1.2942 H   0  0  0  0  0
   -3.5227    1.6896   -0.0363 H   0  0  0  0  0
   -5.5751    1.0275   -0.0865 C   0  0  0  0  0
   -6.3395    0.7721   -0.8274 H   0  0  0  0  0
   -5.3898    0.1250    0.5037 H   0  0  0  0  0
   -6.1107    2.1217    0.8340 C   0  0  0  0  0
   -5.3450    2.3868    1.5718 H   0  0  0  0  0
   -6.3127    3.0263    0.2494 H   0  0  0  0  0
   -7.3831    1.6782    1.5487 C   0  0  0  0  0
   -8.1628    1.4299    0.8213 H   0  0  0  0  0
   -7.1897    0.7811    2.1449 H   0  0  0  0  0
   -7.8591    2.7400    2.4263 N   0  0  0  0  0
   -8.6081    2.3825    3.0183 H   0  0  0  0  0
   -8.2678    3.4913    1.8712 H   0  0  0  0  0
   -3.3816   -0.8063   -1.2188 N   0  0  0  0  0
   -2.7931   -0.6504   -0.3997 H   0  0  0  0  0
   -4.2161   -1.2671   -0.8560 H   0  0  0  0  0
  1  2  1  0  0  0
  2  3  1  0  0  0
  2  7  1  0  0  0
  2 22  1  0  0  0
  3  4  2  0  0  0
  3  5  1  0  0  0
  5  6  1  0  0  0
  7  8  1  0  0  0
  7  9  1  0  0  0
  7 10  1  0  0  0
 10 11  1  0  0  0
 10 12  1  0  0  0
 10 13  1  0  0  0
 13 14  1  0  0  0
 13 15  1  0  0  0
 13 16  1  0  0  0
 16 17  1  0  0  0
 16 18  1  0  0  0
 16 19  1  0  0  0
 19 20  1  0  0  0
 19 21  1  0  0  0
 22 23  1  0  0  0
 22 24  1  0  0  0
M  END
$$$$
