(2R)-2-Amino-3-sulfanyl-propanoic acid
 OpenBabel06270619323D

 14 13  0  0  0  0  0  0  0  0999 V2000
   -4.1183   -0.6609   -0.8106 H   0  0  0  0  0
   -3.8856    0.1187   -1.5445 C   0  0  0  0  0
   -2.4518    0.0164   -1.8490 N   0  0  0  0  0
   -2.2728    0.2988   -2.8137 H   0  0  0  0  0
   -2.1440   -0.9537   -1.7765 H   0  0  0  0  0
   -4.1794    1.5192   -0.9932 C   0  0  0  0  0
   -3.4942    1.7618   -0.1747 H   0  0  0  0  0
   -4.0543    2.2840   -1.7670 H   0  0  0  0  0
   -5.8710    1.6498   -0.3400 S   0  0  0  0  0
   -5.7780    2.9220    0.0747 H   0  0  0  0  0
   -4.6639   -0.1400   -2.8329 C   0  0  0  0  0
   -4.1547   -0.2670   -3.9377 O   0  0  0  0  0
   -6.0101   -0.2090   -2.6348 O   0  0  0  0  0
   -6.3038    0.0246   -1.7286 H   0  0  0  0  0
  1  2  1  0  0  0
  2  3  1  0  0  0
  2  6  1  0  0  0
  2 11  1  0  0  0
  3  4  1  0  0  0
  3  5  1  0  0  0
  6  7  1  0  0  0
  6  8  1  0  0  0
  6  9  1  0  0  0
  9 10  1  0  0  0
 11 12  2  0  0  0
 11 13  1  0  0  0
 13 14  1  0  0  0
M  END
$$$$
