(2R)-2-Aminobutanedioic acid
 OpenBabel06270619323D

 16 15  0  0  0  0  0  0  0  0999 V2000
   -2.6454    0.8797   -2.2654 H   0  0  0  0  0
   -3.6007    0.4144   -2.0013 C   0  0  0  0  0
   -4.3593    0.2007   -3.3043 C   0  0  0  0  0
   -4.5505    1.0685   -4.1434 O   0  0  0  0  0
   -4.8494   -1.0565   -3.4353 O   0  0  0  0  0
   -5.3372   -1.1364   -4.2813 H   0  0  0  0  0
   -4.3770    1.3415   -1.0613 C   0  0  0  0  0
   -3.7788    1.5833   -0.1762 H   0  0  0  0  0
   -4.6024    2.2983   -1.5450 H   0  0  0  0  0
   -5.6723    0.7357   -0.5789 C   0  0  0  0  0
   -5.8314    0.1514    0.4822 O   0  0  0  0  0
   -6.6668    0.9149   -1.4795 O   0  0  0  0  0
   -7.4935    0.5105   -1.1426 H   0  0  0  0  0
   -3.3081   -0.8753   -1.3658 N   0  0  0  0  0
   -2.3366   -1.1370   -1.5334 H   0  0  0  0  0
   -3.8806   -1.6101   -1.7815 H   0  0  0  0  0
  1  2  1  0  0  0
  2  3  1  0  0  0
  2  7  1  0  0  0
  2 14  1  0  0  0
  3  4  2  0  0  0
  3  5  1  0  0  0
  5  6  1  0  0  0
  7  8  1  0  0  0
  7  9  1  0  0  0
  7 10  1  0  0  0
 10 11  2  0  0  0
 10 12  1  0  0  0
 12 13  1  0  0  0
 14 15  1  0  0  0
 14 16  1  0  0  0
M  END
$$$$
