(2R)-2-Amino-3-(4-hydroxyphenyl)propanoic acid
 OpenBabel06270619323D

 24 24  0  0  0  0  0  0  0  0999 V2000
   -2.6475    0.5436   -2.3246 H   0  0  0  0  0
   -3.6614    0.3784   -1.9449 C   0  0  0  0  0
   -3.5672   -0.6916   -0.9458 N   0  0  0  0  0
   -4.3130   -1.3724   -1.0889 H   0  0  0  0  0
   -2.6901   -1.1992   -1.0587 H   0  0  0  0  0
   -4.5064   -0.0764   -3.1267 C   0  0  0  0  0
   -4.5943    0.5328   -4.1824 O   0  0  0  0  0
   -5.2040   -1.2140   -2.8849 O   0  0  0  0  0
   -5.7384   -1.4517   -3.6708 H   0  0  0  0  0
   -4.1854    1.6937   -1.3452 C   0  0  0  0  0
   -3.5256    2.0266   -0.5359 H   0  0  0  0  0
   -4.1107    2.4787   -2.1061 H   0  0  0  0  0
   -5.6090    1.6670   -0.8361 C   0  0  0  0  0
   -6.6513    2.0875   -1.6572 C   0  0  0  0  0
   -6.4495    2.4275   -2.6686 H   0  0  0  0  0
   -7.9565    2.0839   -1.2032 C   0  0  0  0  0
   -8.7605    2.4162   -1.8521 H   0  0  0  0  0
   -8.2263    1.6573    0.0802 C   0  0  0  0  0
   -7.2090    1.2302    0.9158 C   0  0  0  0  0
   -7.4197    0.8936    1.9258 H   0  0  0  0  0
   -5.9047    1.2368    0.4539 C   0  0  0  0  0
   -5.1098    0.9056    1.1150 H   0  0  0  0  0
   -9.5402    1.6683    0.5110 O   0  0  0  0  0
   -9.5502    1.3488    1.4298 H   0  0  0  0  0
  1  2  1  0  0  0
  2  3  1  0  0  0
  2  6  1  0  0  0
  2 10  1  0  0  0
  3  4  1  0  0  0
  3  5  1  0  0  0
  6  7  2  0  0  0
  6  8  1  0  0  0
  8  9  1  0  0  0
 10 11  1  0  0  0
 10 12  1  0  0  0
 10 13  1  0  0  0
 13 14  1  0  0  0
 13 21  2  0  0  0
 14 15  1  0  0  0
 14 16  2  0  0  0
 16 17  1  0  0  0
 16 18  1  0  0  0
 18 19  2  0  0  0
 18 23  1  0  0  0
 19 20  1  0  0  0
 19 21  1  0  0  0
 21 22  1  0  0  0
 23 24  1  0  0  0
M  END
$$$$
