(2R)-2-Aminopropanoic acid
 OpenBabel06270619323D

 13 12  0  0  0  0  0  0  0  0999 V2000
   -3.4968    1.7631   -2.4999 H   0  0  0  0  0
   -3.6870    0.7541   -2.1209 C   0  0  0  0  0
   -2.4110    0.0676   -1.8920 N   0  0  0  0  0
   -1.6496    0.7456   -1.8654 H   0  0  0  0  0
   -2.2088   -0.5584   -2.6720 H   0  0  0  0  0
   -4.4505    0.8477   -0.8030 C   0  0  0  0  0
   -5.3980    1.3800   -0.9320 H   0  0  0  0  0
   -3.8724    1.3915   -0.0489 H   0  0  0  0  0
   -4.6824   -0.1445   -0.4012 H   0  0  0  0  0
   -4.4536   -0.0040   -3.1980 C   0  0  0  0  0
   -4.0444   -0.9916   -3.7915 O   0  0  0  0  0
   -5.6394    0.5773   -3.5014 O   0  0  0  0  0
   -6.0935    0.0578   -4.1977 H   0  0  0  0  0
  1  2  1  0  0  0
  2  3  1  0  0  0
  2  6  1  0  0  0
  2 10  1  0  0  0
  3  4  1  0  0  0
  3  5  1  0  0  0
  6  7  1  0  0  0
  6  8  1  0  0  0
  6  9  1  0  0  0
 10 11  2  0  0  0
 10 12  1  0  0  0
 12 13  1  0  0  0
M  END
$$$$
