(2R,3R)-2-Amino-3-hydroxy-butanoic acid
 OpenBabel06270619323D

 17 16  0  0  0  0  0  0  0  0999 V2000
   -2.8489    1.0012   -2.7853 H   0  0  0  0  0
   -3.6746    0.5567   -2.2190 C   0  0  0  0  0
   -4.5363    1.6915   -1.6315 C   0  0  0  0  0
   -4.8455    2.3583   -2.4433 H   0  0  0  0  0
   -3.7396    2.4822   -0.7525 O   0  0  0  0  0
   -3.2948    1.8757   -0.1342 H   0  0  0  0  0
   -5.7968    1.2497   -0.8921 C   0  0  0  0  0
   -6.4973    0.7317   -1.5526 H   0  0  0  0  0
   -6.3085    2.1199   -0.4701 H   0  0  0  0  0
   -5.5619    0.5997   -0.0440 H   0  0  0  0  0
   -4.4841   -0.2462   -3.2301 C   0  0  0  0  0
   -4.5862    0.0767   -4.4043 O   0  0  0  0  0
   -5.1323   -1.3270   -2.7134 O   0  0  0  0  0
   -5.0355   -1.4419   -1.7471 H   0  0  0  0  0
   -3.0378   -0.3124   -1.2142 N   0  0  0  0  0
   -3.6321   -0.4918   -0.4069 H   0  0  0  0  0
   -2.7791   -1.2127   -1.6198 H   0  0  0  0  0
  1  2  1  0  0  0
  2  3  1  0  0  0
  2 11  1  0  0  0
  2 15  1  0  0  0
  3  4  1  0  0  0
  3  5  1  0  0  0
  3  7  1  0  0  0
  5  6  1  0  0  0
  7  8  1  0  0  0
  7  9  1  0  0  0
  7 10  1  0  0  0
 11 12  2  0  0  0
 11 13  1  0  0  0
 13 14  1  0  0  0
 15 16  1  0  0  0
 15 17  1  0  0  0
M  END
$$$$
