(2S)-2-Amino-3-(1H-indol-3-yl)propanoic acid
 OpenBabel06270619323D

 26 27  0  0  0  0  0  0  0  0999 V2000
   -5.4113    0.0725   -1.0884 H   0  0  0  0  0
   -4.3314    0.1544   -1.2438 C   0  0  0  0  0
   -4.0660   -0.0848   -2.6731 N   0  0  0  0  0
   -3.4374    0.6363   -3.0294 H   0  0  0  0  0
   -4.9296    0.0017   -3.2081 H   0  0  0  0  0
   -3.9253    1.6228   -0.9660 C   0  0  0  0  0
   -4.3887    2.1551    0.0823 O   0  0  0  0  0
   -3.1710    2.1297   -1.8451 O   0  0  0  0  0
   -3.6213   -0.9259   -0.4155 C   0  0  0  0  0
   -2.5421   -0.8458   -0.5922 H   0  0  0  0  0
   -3.9073   -1.9110   -0.8009 H   0  0  0  0  0
   -3.8466   -0.9289    1.0630 C   0  0  0  0  0
   -3.0914   -0.1723    1.9346 C   0  0  0  0  0
   -3.5465   -0.3752    3.2011 N   0  0  0  0  0
   -3.1717    0.0712    4.0290 H   0  0  0  0  0
   -4.5881   -1.2595    3.1931 C   0  0  0  0  0
   -4.7963   -1.6459    1.8740 C   0  0  0  0  0
   -5.8127   -2.5678    1.6258 C   0  0  0  0  0
   -6.0288   -2.9219    0.6252 H   0  0  0  0  0
   -6.5742   -3.0390    2.6786 C   0  0  0  0  0
   -7.3698   -3.7503    2.4814 H   0  0  0  0  0
   -6.3453   -2.6242    3.9729 C   0  0  0  0  0
   -6.9605   -3.0128    4.7781 H   0  0  0  0  0
   -5.3393   -1.7253    4.2575 C   0  0  0  0  0
   -5.1538   -1.4010    5.2767 H   0  0  0  0  0
   -2.2700    0.5074    1.7541 H   0  0  0  0  0
  1  2  1  0  0  0
  2  3  1  0  0  0
  2  6  1  0  0  0
  2  9  1  0  0  0
  3  4  1  0  0  0
  3  5  1  0  0  0
  6  7  2  0  0  0
  6  8  2  0  0  0
  9 10  1  0  0  0
  9 11  1  0  0  0
  9 12  1  0  0  0
 12 13  2  0  0  0
 12 17  1  0  0  0
 13 14  1  0  0  0
 13 26  1  0  0  0
 14 15  1  0  0  0
 14 16  1  0  0  0
 16 17  1  0  0  0
 16 24  2  0  0  0
 17 18  2  0  0  0
 18 19  1  0  0  0
 18 20  1  0  0  0
 20 21  1  0  0  0
 20 22  2  0  0  0
 22 23  1  0  0  0
 22 24  1  0  0  0
 24 25  1  0  0  0
M  END
$$$$
