(2S)-2-Amino-3-sulfanyl-propanoic acid
 OpenBabel06270619323D

 14 13  0  0  0  0  0  0  0  0999 V2000
    0.4905   -0.2517   -0.4075 C   0  0  0  0  0
    1.1767   -1.3703    0.2611 N   0  0  0  0  0
    1.1007   -2.2605   -0.3464 H   0  0  0  0  0
    0.7300   -1.5550    1.2273 H   0  0  0  0  0
    0.6112    1.0272    0.4478 C   0  0  0  0  0
    0.1318    0.8808    1.4274 H   0  0  0  0  0
    1.6732    1.2757    0.5944 H   0  0  0  0  0
   -0.2164    2.3842   -0.4366 S   0  0  0  0  0
   -0.0401    3.1076    0.2431 H   0  0  0  0  0
   -0.9586   -0.5912   -0.6223 C   0  0  0  0  0
   -1.4554   -0.6266   -1.7366 O   0  0  0  0  0
   -1.6582   -0.8703    0.4761 O   0  0  0  0  0
   -2.5585   -1.0771    0.2531 H   0  0  0  0  0
    0.9731   -0.0729   -1.3808 H   0  0  0  0  0
  1  2  1  0  0  0
  1  5  1  0  0  0
  1 10  1  0  0  0
  1 14  1  0  0  0
  2  3  1  0  0  0
  2  4  1  0  0  0
  5  6  1  0  0  0
  5  7  1  0  0  0
  5  8  1  0  0  0
  8  9  1  0  0  0
 10 11  2  0  0  0
 10 12  1  0  0  0
 12 13  1  0  0  0
M  END
$$$$
