(2S)-2-Amino-3-methyl-butanoic acid
 OpenBabel06270619323D

 19 18  0  0  0  0  0  0  0  0999 V2000
   -4.8896   -0.4436   -0.7913 H   0  0  0  0  0
   -4.2206    0.1657   -1.4084 C   0  0  0  0  0
   -2.8873   -0.4484   -1.3416 N   0  0  0  0  0
   -2.3084   -0.1184   -2.1149 H   0  0  0  0  0
   -2.9568   -1.4606   -1.4479 H   0  0  0  0  0
   -4.1631    1.6122   -0.8719 C   0  0  0  0  0
   -3.4727    2.1988   -1.4895 H   0  0  0  0  0
   -5.5133    2.3225   -0.9179 C   0  0  0  0  0
   -5.8730    2.4384   -1.9443 H   0  0  0  0  0
   -5.4416    3.3273   -0.4903 H   0  0  0  0  0
   -6.2727    1.7736   -0.3516 H   0  0  0  0  0
   -3.6488    1.6285    0.5663 C   0  0  0  0  0
   -3.6296    2.6480    0.9637 H   0  0  0  0  0
   -2.6297    1.2362    0.6320 H   0  0  0  0  0
   -4.2830    1.0268    1.2254 H   0  0  0  0  0
   -4.7048    0.1026   -2.8538 C   0  0  0  0  0
   -3.9846    0.2177   -3.8354 O   0  0  0  0  0
   -6.0531   -0.0791   -2.9491 O   0  0  0  0  0
   -6.5351   -0.1089   -2.0962 H   0  0  0  0  0
  1  2  1  0  0  0
  2  3  1  0  0  0
  2  6  1  0  0  0
  2 16  1  0  0  0
  3  4  1  0  0  0
  3  5  1  0  0  0
  6  7  1  0  0  0
  6  8  1  0  0  0
  6 12  1  0  0  0
  8  9  1  0  0  0
  8 10  1  0  0  0
  8 11  1  0  0  0
 12 13  1  0  0  0
 12 14  1  0  0  0
 12 15  1  0  0  0
 16 17  2  0  0  0
 16 18  1  0  0  0
 18 19  1  0  0  0
M  END
$$$$
