(2S)-2-Amino-3-carbamoyl-propanoic acid
 OpenBabel06270619323D

 17 16  0  0  0  0  0  0  0  0999 V2000
   -1.9971   -0.0211   -1.0452 H   0  0  0  0  0
   -2.5109   -0.0855   -1.9236 N   0  0  0  0  0
   -2.2309    0.7297   -2.4689 H   0  0  0  0  0
   -3.9508   -0.0413   -1.6583 C   0  0  0  0  0
   -4.2079   -0.9255   -1.0651 H   0  0  0  0  0
   -4.3148    1.2789   -0.9526 C   0  0  0  0  0
   -3.8236    1.3353    0.0260 H   0  0  0  0  0
   -3.9722    2.1422   -1.5364 H   0  0  0  0  0
   -5.7996    1.4293   -0.6779 C   0  0  0  0  0
   -6.5486    0.4948   -0.4294 O   0  0  0  0  0
   -6.2110    2.7406   -0.7159 N   0  0  0  0  0
   -6.1642    3.3498    0.0954 H   0  0  0  0  0
   -6.5802    3.1478   -1.5691 H   0  0  0  0  0
   -4.6498   -0.1471   -3.0038 C   0  0  0  0  0
   -4.6985    0.7233   -3.8630 O   0  0  0  0  0
   -5.2318   -1.3652   -3.1510 O   0  0  0  0  0
   -5.7093   -1.4434   -4.0044 H   0  0  0  0  0
  1  2  1  0  0  0
  2  3  1  0  0  0
  2  4  1  0  0  0
  4  5  1  0  0  0
  4  6  1  0  0  0
  4 14  1  0  0  0
  6  7  1  0  0  0
  6  8  1  0  0  0
  6  9  1  0  0  0
  9 10  2  0  0  0
  9 11  1  0  0  0
 11 12  1  0  0  0
 11 13  1  0  0  0
 14 15  2  0  0  0
 14 16  1  0  0  0
 16 17  1  0  0  0
M  END
$$$$
