(2S)-2-Amino-4-methylsulfanyl-butanoic acid
 OpenBabel06270619323D

 20 19  0  0  0  0  0  0  0  0999 V2000
   -4.5554   -0.7992   -1.2214 H   0  0  0  0  0
   -4.2788    0.0875   -1.8019 C   0  0  0  0  0
   -2.8343    0.2952   -1.6382 N   0  0  0  0  0
   -2.5750    1.2284   -1.9600 H   0  0  0  0  0
   -2.5783    0.2559   -0.6524 H   0  0  0  0  0
   -5.1028    1.3072   -1.3681 C   0  0  0  0  0
   -4.8112    2.1811   -1.9630 H   0  0  0  0  0
   -6.1554    1.1247   -1.6071 H   0  0  0  0  0
   -4.9637    1.6180    0.1200 C   0  0  0  0  0
   -5.1855    0.7387    0.7326 H   0  0  0  0  0
   -3.9379    1.9188    0.3497 H   0  0  0  0  0
   -6.0476    2.9971    0.6200 S   0  0  0  0  0
   -7.4826    2.0624    1.2175 C   0  0  0  0  0
   -8.2626    2.7634    1.5251 H   0  0  0  0  0
   -7.2090    1.4507    2.0814 H   0  0  0  0  0
   -7.8885    1.4252    0.4282 H   0  0  0  0  0
   -4.5612   -0.1973   -3.2719 C   0  0  0  0  0
   -3.8788    0.1977   -4.2069 O   0  0  0  0  0
   -5.7036   -0.9199   -3.4510 O   0  0  0  0  0
   -6.1970   -1.1305   -2.6308 H   0  0  0  0  0
  1  2  1  0  0  0
  2  3  1  0  0  0
  2  6  1  0  0  0
  2 17  1  0  0  0
  3  4  1  0  0  0
  3  5  1  0  0  0
  6  7  1  0  0  0
  6  8  1  0  0  0
  6  9  1  0  0  0
  9 10  1  0  0  0
  9 11  1  0  0  0
  9 12  1  0  0  0
 12 13  1  0  0  0
 13 14  1  0  0  0
 13 15  1  0  0  0
 13 16  1  0  0  0
 17 18  2  0  0  0
 17 19  1  0  0  0
 19 20  1  0  0  0
M  END
$$$$
