(2S)-Pyrrolidine-2-carboxylic acid
 OpenBabel06270619323D

 17 17  0  0  0  0  0  0  0  0999 V2000
   -4.0592   -0.5603   -0.5046 H   0  0  0  0  0
   -3.9136   -0.0441   -1.4591 C   0  0  0  0  0
   -4.7766   -0.7412   -2.5058 C   0  0  0  0  0
   -4.3720   -1.3032   -3.5136 O   0  0  0  0  0
   -6.0868   -0.7239   -2.1617 O   0  0  0  0  0
   -6.6164   -1.1802   -2.8489 H   0  0  0  0  0
   -2.5007   -0.0746   -1.8538 N   0  0  0  0  0
   -2.2914    1.0315   -2.7850 C   0  0  0  0  0
   -1.2736    1.4235   -2.7008 H   0  0  0  0  0
   -2.4346    0.6996   -3.8191 H   0  0  0  0  0
   -3.3284    2.0787   -2.4208 C   0  0  0  0  0
   -3.9288    2.3379   -3.2994 H   0  0  0  0  0
   -2.8665    3.0000   -2.0511 H   0  0  0  0  0
   -4.1953    1.4452   -1.3526 C   0  0  0  0  0
   -5.2492    1.7101   -1.4849 H   0  0  0  0  0
   -3.8821    1.8134   -0.3687 H   0  0  0  0  0
   -2.2395   -0.9683   -2.2723 H   0  0  0  0  0
  1  2  1  0  0  0
  2  3  1  0  0  0
  2  7  1  0  0  0
  2 14  1  0  0  0
  3  4  2  0  0  0
  3  5  1  0  0  0
  5  6  1  0  0  0
  7  8  1  0  0  0
  7 17  1  0  0  0
  8  9  1  0  0  0
  8 10  1  0  0  0
  8 11  1  0  0  0
 11 12  1  0  0  0
 11 13  1  0  0  0
 11 14  1  0  0  0
 14 15  1  0  0  0
 14 16  1  0  0  0
M  END
$$$$
