(2S,3R)-2-Amino-3-hydroxy-butanoic acid
 OpenBabel06270619323D

 17 16  0  0  0  0  0  0  0  0999 V2000
    0.3744   -0.0110   -1.9209 C   0  0  0  0  0
    0.2457   -0.7715   -0.5836 C   0  0  0  0  0
    0.4022    0.1977    0.6109 C   0  0  0  0  0
   -0.6536    1.2681    0.5701 C   0  0  0  0  0
   -0.3701    2.4516    0.4765 O   0  0  0  0  0
   -1.9134    0.8444    0.6552 O   0  0  0  0  0
    1.3980    0.6642    0.5605 H   0  0  0  0  0
    1.2705   -1.7717   -0.5289 O   0  0  0  0  0
   -0.4228    0.7417   -2.0122 H   0  0  0  0  0
    0.2892   -0.7253   -2.7535 H   0  0  0  0  0
    1.3536    0.4877   -1.9741 H   0  0  0  0  0
   -0.7411   -1.2588   -0.5441 H   0  0  0  0  0
    0.2992   -0.5460    1.8782 N   0  0  0  0  0
   -2.5140    1.5800    0.6211 H   0  0  0  0  0
    1.2100   -2.2719    0.2769 H   0  0  0  0  0
   -0.6743   -1.0077    1.9585 H   0  0  0  0  0
    0.4464    0.1284    2.7094 H   0  0  0  0  0
  1  2  1  0  0  0
  1  9  1  0  0  0
  1 10  1  0  0  0
  1 11  1  0  0  0
  2  3  1  0  0  0
  2  8  1  0  0  0
  2 12  1  0  0  0
  3  4  1  0  0  0
  3  7  1  0  0  0
  3 13  1  0  0  0
  4  5  2  0  0  0
  4  6  1  0  0  0
  6 14  1  0  0  0
  8 15  1  0  0  0
 13 16  1  0  0  0
 13 17  1  0  0  0
M  END
$$$$
