2-Methylpentane
 OpenBabel06270619323D

 20 19  0  0  0  0  0  0  0  0999 V2000
   -1.9430   -0.0899   -1.0396 H   0  0  0  0  0
   -2.5803    0.0052   -1.9242 C   0  0  0  0  0
   -2.2579    0.8948   -2.4752 H   0  0  0  0  0
   -2.3945   -0.8675   -2.5579 H   0  0  0  0  0
   -4.0540    0.0948   -1.5313 C   0  0  0  0  0
   -4.3240   -0.8440   -1.0351 H   0  0  0  0  0
   -4.2535    1.2341   -0.5304 C   0  0  0  0  0
   -3.5785    1.1269    0.3244 H   0  0  0  0  0
   -4.0584    2.2085   -0.9897 H   0  0  0  0  0
   -5.2720    1.2469   -0.1330 H   0  0  0  0  0
   -4.9245    0.2557   -2.7891 C   0  0  0  0  0
   -4.8167    1.2701   -3.1900 H   0  0  0  0  0
   -4.5520   -0.4209   -3.5665 H   0  0  0  0  0
   -6.4066   -0.0412   -2.5531 C   0  0  0  0  0
   -6.5205   -1.0145   -2.0649 H   0  0  0  0  0
   -6.8450    0.7065   -1.8859 H   0  0  0  0  0
   -7.1896   -0.0442   -3.8554 C   0  0  0  0  0
   -7.1225    0.9256   -4.3576 H   0  0  0  0  0
   -6.8137   -0.8103   -4.5404 H   0  0  0  0  0
   -8.2465   -0.2523   -3.6648 H   0  0  0  0  0
  1  2  1  0  0  0
  2  3  1  0  0  0
  2  4  1  0  0  0
  2  5  1  0  0  0
  5  6  1  0  0  0
  5  7  1  0  0  0
  5 11  1  0  0  0
  7  8  1  0  0  0
  7  9  1  0  0  0
  7 10  1  0  0  0
 11 12  1  0  0  0
 11 13  1  0  0  0
 11 14  1  0  0  0
 14 15  1  0  0  0
 14 16  1  0  0  0
 14 17  1  0  0  0
 17 18  1  0  0  0
 17 19  1  0  0  0
 17 20  1  0  0  0
M  END
$$$$
