2-Methylbutane
 OpenBabel06270619323D

 17 16  0  0  0  0  0  0  0  0999 V2000
   -1.9735    0.0397   -0.9165 H   0  0  0  0  0
   -2.5162   -0.0109   -1.8655 C   0  0  0  0  0
   -2.2099    0.8481   -2.4715 H   0  0  0  0  0
   -2.1911   -0.9190   -2.3825 H   0  0  0  0  0
   -4.0263   -0.0208   -1.6345 C   0  0  0  0  0
   -4.2705   -0.9281   -1.0711 H   0  0  0  0  0
   -4.4292    1.1863   -0.7861 C   0  0  0  0  0
   -3.8459    1.2259    0.1391 H   0  0  0  0  0
   -4.2668    2.1261   -1.3236 H   0  0  0  0  0
   -5.4827    1.1396   -0.4971 H   0  0  0  0  0
   -4.7645   -0.0640   -2.9825 C   0  0  0  0  0
   -4.7162    0.9142   -3.4732 H   0  0  0  0  0
   -4.2572   -0.7689   -3.6497 H   0  0  0  0  0
   -6.2218   -0.4877   -2.8687 C   0  0  0  0  0
   -6.3144   -1.4487   -2.3539 H   0  0  0  0  0
   -6.8172    0.2528   -2.3278 H   0  0  0  0  0
   -6.6612   -0.5971   -3.8643 H   0  0  0  0  0
  1  2  1  0  0  0
  2  3  1  0  0  0
  2  4  1  0  0  0
  2  5  1  0  0  0
  5  6  1  0  0  0
  5  7  1  0  0  0
  5 11  1  0  0  0
  7  8  1  0  0  0
  7  9  1  0  0  0
  7 10  1  0  0  0
 11 12  1  0  0  0
 11 13  1  0  0  0
 11 14  1  0  0  0
 14 15  1  0  0  0
 14 16  1  0  0  0
 14 17  1  0  0  0
M  END
$$$$
