2-Methylheptane
 OpenBabel06270619323D

 26 25  0  0  0  0  0  0  0  0999 V2000
   -1.9626   -0.0624   -1.0136 H   0  0  0  0  0
   -2.5452    0.0110   -1.9364 C   0  0  0  0  0
   -2.2194    0.9083   -2.4712 H   0  0  0  0  0
   -2.3082   -0.8601   -2.5549 H   0  0  0  0  0
   -4.0303    0.0704   -1.6212 C   0  0  0  0  0
   -4.3131   -0.8256   -1.0589 H   0  0  0  0  0
   -4.2242    0.9295   -0.9708 H   0  0  0  0  0
   -4.8716    0.1761   -2.8910 C   0  0  0  0  0
   -4.6015    1.0873   -3.4360 H   0  0  0  0  0
   -4.6445   -0.6672   -3.5524 H   0  0  0  0  0
   -6.3659    0.1926   -2.5736 C   0  0  0  0  0
   -6.6482   -0.7486   -2.0895 H   0  0  0  0  0
   -6.5689    0.9938   -1.8562 H   0  0  0  0  0
   -7.2048    0.3923   -3.8376 C   0  0  0  0  0
   -7.0420    1.4045   -4.2252 H   0  0  0  0  0
   -6.8407   -0.2929   -4.6113 H   0  0  0  0  0
   -8.7090    0.1491   -3.6269 C   0  0  0  0  0
   -8.8399   -0.8070   -3.1083 H   0  0  0  0  0
   -9.3680    1.2413   -2.7829 C   0  0  0  0  0
   -8.9741    1.2533   -1.7631 H   0  0  0  0  0
   -9.2092    2.2332   -3.2181 H   0  0  0  0  0
  -10.4475    1.0790   -2.7061 H   0  0  0  0  0
   -9.4151    0.0435   -4.9778 C   0  0  0  0  0
   -9.3291    0.9738   -5.5487 H   0  0  0  0  0
   -8.9870   -0.7617   -5.5829 H   0  0  0  0  0
  -10.4799   -0.1741   -4.8491 H   0  0  0  0  0
  1  2  1  0  0  0
  2  3  1  0  0  0
  2  4  1  0  0  0
  2  5  1  0  0  0
  5  6  1  0  0  0
  5  7  1  0  0  0
  5  8  1  0  0  0
  8  9  1  0  0  0
  8 10  1  0  0  0
  8 11  1  0  0  0
 11 12  1  0  0  0
 11 13  1  0  0  0
 11 14  1  0  0  0
 14 15  1  0  0  0
 14 16  1  0  0  0
 14 17  1  0  0  0
 17 18  1  0  0  0
 17 19  1  0  0  0
 17 23  1  0  0  0
 19 20  1  0  0  0
 19 21  1  0  0  0
 19 22  1  0  0  0
 23 24  1  0  0  0
 23 25  1  0  0  0
 23 26  1  0  0  0
M  END
$$$$
