3-Ethylpentane
 OpenBabel06270619323D

 23 22  0  0  0  0  0  0  0  0999 V2000
   -1.9960   -0.0922   -0.9062 H   0  0  0  0  0
   -2.5008    0.0063   -1.8718 C   0  0  0  0  0
   -2.1398    0.9231   -2.3473 H   0  0  0  0  0
   -2.1945   -0.8470   -2.4828 H   0  0  0  0  0
   -4.0099    0.0461   -1.6717 C   0  0  0  0  0
   -4.3092   -0.8125   -1.0608 H   0  0  0  0  0
   -4.2261    0.9378   -1.0770 H   0  0  0  0  0
   -4.8306    0.0796   -2.9795 C   0  0  0  0  0
   -4.2421    0.6232   -3.7278 H   0  0  0  0  0
   -5.0766   -1.3454   -3.5216 C   0  0  0  0  0
   -4.2276   -1.9874   -3.2709 H   0  0  0  0  0
   -5.9526   -1.7876   -3.0351 H   0  0  0  0  0
   -5.2584   -1.4264   -5.0314 C   0  0  0  0  0
   -6.2037   -0.9796   -5.3512 H   0  0  0  0  0
   -4.4401   -0.9244   -5.5564 H   0  0  0  0  0
   -5.2719   -2.4718   -5.3529 H   0  0  0  0  0
   -6.1604    0.8404   -2.7857 C   0  0  0  0  0
   -6.8796    0.5269   -3.5473 H   0  0  0  0  0
   -6.6040    0.5843   -1.8175 H   0  0  0  0  0
   -6.0434    2.3552   -2.8893 C   0  0  0  0  0
   -5.5026    2.7798   -2.0393 H   0  0  0  0  0
   -5.5324    2.6510   -3.8106 H   0  0  0  0  0
   -7.0384    2.8095   -2.8966 H   0  0  0  0  0
  1  2  1  0  0  0
  2  3  1  0  0  0
  2  4  1  0  0  0
  2  5  1  0  0  0
  5  6  1  0  0  0
  5  7  1  0  0  0
  5  8  1  0  0  0
  8  9  1  0  0  0
  8 10  1  0  0  0
  8 17  1  0  0  0
 10 11  1  0  0  0
 10 12  1  0  0  0
 10 13  1  0  0  0
 13 14  1  0  0  0
 13 15  1  0  0  0
 13 16  1  0  0  0
 17 18  1  0  0  0
 17 19  1  0  0  0
 17 20  1  0  0  0
 20 21  1  0  0  0
 20 22  1  0  0  0
 20 23  1  0  0  0
M  END
$$$$
