3-Methylpentane
 OpenBabel06270619323D

 20 19  0  0  0  0  0  0  0  0999 V2000
   -2.0140   -0.0028   -0.9397 H   0  0  0  0  0
   -2.5055   -0.0655   -1.9140 C   0  0  0  0  0
   -2.1455    0.7674   -2.5262 H   0  0  0  0  0
   -2.1573   -0.9943   -2.3731 H   0  0  0  0  0
   -4.0322   -0.0395   -1.7790 C   0  0  0  0  0
   -4.3297   -0.8935   -1.1599 H   0  0  0  0  0
   -4.5186    1.2472   -1.0873 C   0  0  0  0  0
   -4.0923    2.1272   -1.5810 H   0  0  0  0  0
   -5.6052    1.3287   -1.1983 H   0  0  0  0  0
   -4.1993    1.3110    0.3999 C   0  0  0  0  0
   -4.5715    0.4250    0.9230 H   0  0  0  0  0
   -3.1243    1.3932    0.5807 H   0  0  0  0  0
   -4.6718    2.1895    0.8489 H   0  0  0  0  0
   -4.7256   -0.1740   -3.1471 C   0  0  0  0  0
   -5.7915    0.0519   -3.0362 H   0  0  0  0  0
   -4.3260    0.5666   -3.8485 H   0  0  0  0  0
   -4.6083   -1.5584   -3.7696 C   0  0  0  0  0
   -3.5790   -1.7870   -4.0581 H   0  0  0  0  0
   -4.9546   -2.3333   -3.0794 H   0  0  0  0  0
   -5.2198   -1.6170   -4.6747 H   0  0  0  0  0
  1  2  1  0  0  0
  2  3  1  0  0  0
  2  4  1  0  0  0
  2  5  1  0  0  0
  5  6  1  0  0  0
  5  7  1  0  0  0
  5 14  1  0  0  0
  7  8  1  0  0  0
  7  9  1  0  0  0
  7 10  1  0  0  0
 10 11  1  0  0  0
 10 12  1  0  0  0
 10 13  1  0  0  0
 14 15  1  0  0  0
 14 16  1  0  0  0
 14 17  1  0  0  0
 17 18  1  0  0  0
 17 19  1  0  0  0
 17 20  1  0  0  0
M  END
$$$$
