(3S)-2,3-Dimethylpentane
 OpenBabel06270619323D

 23 22  0  0  0  0  0  0  0  0999 V2000
   -1.8919    0.0387   -1.0408 H   0  0  0  0  0
   -2.5051   -0.0641   -1.9416 C   0  0  0  0  0
   -2.1852    0.7058   -2.6510 H   0  0  0  0  0
   -2.2636   -1.0415   -2.3672 H   0  0  0  0  0
   -3.9973    0.0620   -1.6142 C   0  0  0  0  0
   -4.3109   -0.8843   -1.1592 H   0  0  0  0  0
   -4.1638    1.1539   -0.5514 C   0  0  0  0  0
   -3.4711    1.0036    0.2826 H   0  0  0  0  0
   -3.9735    2.1485   -0.9674 H   0  0  0  0  0
   -5.1682    1.1511   -0.1204 H   0  0  0  0  0
   -4.8673    0.3200   -2.8793 C   0  0  0  0  0
   -4.5950    1.3011   -3.2857 H   0  0  0  0  0
   -4.5840   -0.7160   -3.9769 C   0  0  0  0  0
   -3.5374   -0.7034   -4.2898 H   0  0  0  0  0
   -4.8241   -1.7290   -3.6392 H   0  0  0  0  0
   -5.1614   -0.5179   -4.8830 H   0  0  0  0  0
   -6.3739    0.3598   -2.5382 C   0  0  0  0  0
   -6.6743   -0.5737   -2.0497 H   0  0  0  0  0
   -6.5698    1.1613   -1.8213 H   0  0  0  0  0
   -7.2908    0.6084   -3.7286 C   0  0  0  0  0
   -6.9744    1.4891   -4.2954 H   0  0  0  0  0
   -7.3204   -0.2499   -4.4047 H   0  0  0  0  0
   -8.3151    0.7810   -3.3855 H   0  0  0  0  0
  1  2  1  0  0  0
  2  3  1  0  0  0
  2  4  1  0  0  0
  2  5  1  0  0  0
  5  6  1  0  0  0
  5  7  1  0  0  0
  5 11  1  0  0  0
  7  8  1  0  0  0
  7  9  1  0  0  0
  7 10  1  0  0  0
 11 12  1  0  0  0
 11 13  1  0  0  0
 11 17  1  0  0  0
 13 14  1  0  0  0
 13 15  1  0  0  0
 13 16  1  0  0  0
 17 18  1  0  0  0
 17 19  1  0  0  0
 17 20  1  0  0  0
 20 21  1  0  0  0
 20 22  1  0  0  0
 20 23  1  0  0  0
M  END
$$$$
