Cyclooctane
 OpenBabel06270619323D

 24 24  0  0  0  0  0  0  0  0999 V2000
   -1.5472   -1.6428    0.4675 H   0  0  0  0  0
   -2.1146   -2.5789    0.4252 C   0  0  0  0  0
   -1.6447   -3.1704   -0.3674 H   0  0  0  0  0
   -1.9328   -3.3435    1.7391 C   0  0  0  0  0
   -2.4381   -4.3132    1.6966 H   0  0  0  0  0
   -0.8661   -3.5781    1.8189 H   0  0  0  0  0
   -2.3230   -2.5583    2.9952 C   0  0  0  0  0
   -1.5726   -2.7580    3.7673 H   0  0  0  0  0
   -2.2555   -1.4815    2.8223 H   0  0  0  0  0
   -3.6814   -2.9227    3.5978 C   0  0  0  0  0
   -3.5617   -3.8609    4.1501 H   0  0  0  0  0
   -3.9440   -2.1716    4.3501 H   0  0  0  0  0
   -4.8554   -3.1093    2.6367 C   0  0  0  0  0
   -4.6629   -3.9411    1.9543 H   0  0  0  0  0
   -5.7141   -3.4346    3.2332 H   0  0  0  0  0
   -5.2897   -1.8677    1.8579 C   0  0  0  0  0
   -6.1951   -2.1337    1.3020 H   0  0  0  0  0
   -5.5970   -1.0866    2.5611 H   0  0  0  0  0
   -4.2911   -1.2680    0.8657 C   0  0  0  0  0
   -3.5885   -0.6075    1.3797 H   0  0  0  0  0
   -4.8610   -0.6024    0.2090 H   0  0  0  0  0
   -3.5517   -2.2826   -0.0122 C   0  0  0  0  0
   -4.1219   -3.2097   -0.1249 H   0  0  0  0  0
   -3.4900   -1.8587   -1.0200 H   0  0  0  0  0
  1  2  1  0  0  0
  2  3  1  0  0  0
  2  4  1  0  0  0
  2 22  1  0  0  0
  4  5  1  0  0  0
  4  6  1  0  0  0
  4  7  1  0  0  0
  7  8  1  0  0  0
  7  9  1  0  0  0
  7 10  1  0  0  0
 10 11  1  0  0  0
 10 12  1  0  0  0
 10 13  1  0  0  0
 13 14  1  0  0  0
 13 15  1  0  0  0
 13 16  1  0  0  0
 16 17  1  0  0  0
 16 18  1  0  0  0
 16 19  1  0  0  0
 19 20  1  0  0  0
 19 21  1  0  0  0
 19 22  1  0  0  0
 22 23  1  0  0  0
 22 24  1  0  0  0
M  END
$$$$
