Cycloheptane
 OpenBabel06270619323D

 21 21  0  0  0  0  0  0  0  0999 V2000
   -1.9924   -0.0711   -1.0204 H   0  0  0  0  0
   -2.5389    0.0930   -1.9549 C   0  0  0  0  0
   -2.2100   -0.6926   -2.6434 H   0  0  0  0  0
   -4.0301   -0.0278   -1.6499 C   0  0  0  0  0
   -4.1706   -0.7870   -0.8735 H   0  0  0  0  0
   -4.3969    0.9068   -1.2123 H   0  0  0  0  0
   -4.9089   -0.4143   -2.8382 C   0  0  0  0  0
   -5.9434   -0.1548   -2.5899 H   0  0  0  0  0
   -4.9023   -1.5040   -2.9459 H   0  0  0  0  0
   -4.5571    0.1934   -4.1949 C   0  0  0  0  0
   -3.7973   -0.4237   -4.6863 H   0  0  0  0  0
   -5.4457    0.1213   -4.8304 H   0  0  0  0  0
   -4.0971    1.6489   -4.1567 C   0  0  0  0  0
   -4.3013    2.0896   -5.1379 H   0  0  0  0  0
   -4.6792    2.2299   -3.4335 H   0  0  0  0  0
   -2.5981    1.7913   -3.8970 C   0  0  0  0  0
   -2.0415    1.1620   -4.5998 H   0  0  0  0  0
   -2.3048    2.8217   -4.1227 H   0  0  0  0  0
   -2.1491    1.4766   -2.4729 C   0  0  0  0  0
   -1.0584    1.5646   -2.4366 H   0  0  0  0  0
   -2.5331    2.2455   -1.7937 H   0  0  0  0  0
  1  2  1  0  0  0
  2  3  1  0  0  0
  2  4  1  0  0  0
  2 19  1  0  0  0
  4  5  1  0  0  0
  4  6  1  0  0  0
  4  7  1  0  0  0
  7  8  1  0  0  0
  7  9  1  0  0  0
  7 10  1  0  0  0
 10 11  1  0  0  0
 10 12  1  0  0  0
 10 13  1  0  0  0
 13 14  1  0  0  0
 13 15  1  0  0  0
 13 16  1  0  0  0
 16 17  1  0  0  0
 16 18  1  0  0  0
 16 19  1  0  0  0
 19 20  1  0  0  0
 19 21  1  0  0  0
M  END
$$$$
