Cyclononane
 OpenBabel06270619323D

 27 27  0  0  0  0  0  0  0  0999 V2000
   -2.0135   -0.0111   -0.9514 H   0  0  0  0  0
   -2.4546    0.0042   -1.9506 C   0  0  0  0  0
   -3.0173    0.9428   -1.9870 H   0  0  0  0  0
   -1.3783    0.0496   -3.0431 C   0  0  0  0  0
   -1.5203    0.9671   -3.6235 H   0  0  0  0  0
   -1.5081   -0.7557   -3.7698 H   0  0  0  0  0
    0.0617    0.0581   -2.5158 C   0  0  0  0  0
    0.2352    0.9974   -1.9802 H   0  0  0  0  0
    0.7411    0.0757   -3.3744 H   0  0  0  0  0
    0.4606   -1.1009   -1.5941 C   0  0  0  0  0
    1.5243   -0.9841   -1.3623 H   0  0  0  0  0
   -0.0412   -1.0037   -0.6288 H   0  0  0  0  0
    0.2543   -2.4949   -2.2009 C   0  0  0  0  0
    1.2367   -2.9629   -2.3226 H   0  0  0  0  0
   -0.1477   -2.4369   -3.2150 H   0  0  0  0  0
   -0.6014   -3.4385   -1.3469 C   0  0  0  0  0
   -0.0590   -3.6669   -0.4234 H   0  0  0  0  0
   -0.6964   -4.3909   -1.8789 H   0  0  0  0  0
   -2.0026   -2.9421   -0.9701 C   0  0  0  0  0
   -1.9310   -2.1269   -0.2465 H   0  0  0  0  0
   -2.5008   -3.7498   -0.4239 H   0  0  0  0  0
   -2.8836   -2.5600   -2.1667 C   0  0  0  0  0
   -2.3616   -2.7093   -3.1145 H   0  0  0  0  0
   -3.7268   -3.2574   -2.2057 H   0  0  0  0  0
   -3.4628   -1.1415   -2.1004 C   0  0  0  0  0
   -4.1692   -1.0877   -1.2653 H   0  0  0  0  0
   -4.0576   -0.9718   -3.0040 H   0  0  0  0  0
  1  2  1  0  0  0
  2  3  1  0  0  0
  2  4  1  0  0  0
  2 25  1  0  0  0
  4  5  1  0  0  0
  4  6  1  0  0  0
  4  7  1  0  0  0
  7  8  1  0  0  0
  7  9  1  0  0  0
  7 10  1  0  0  0
 10 11  1  0  0  0
 10 12  1  0  0  0
 10 13  1  0  0  0
 13 14  1  0  0  0
 13 15  1  0  0  0
 13 16  1  0  0  0
 16 17  1  0  0  0
 16 18  1  0  0  0
 16 19  1  0  0  0
 19 20  1  0  0  0
 19 21  1  0  0  0
 19 22  1  0  0  0
 22 23  1  0  0  0
 22 24  1  0  0  0
 22 25  1  0  0  0
 25 26  1  0  0  0
 25 27  1  0  0  0
M  END
$$$$
