Cyclohexane
 OpenBabel06270619323D

 18 18  0  0  0  0  0  0  0  0999 V2000
  178.5800 -166.1374  251.2803 H   0  0  0  0  0
  177.8465 -165.4475  251.7093 C   0  0  0  0  0
  178.0034 -165.4693  252.7934 H   0  0  0  0  0
  176.4329 -165.9338  251.3899 C   0  0  0  0  0
  176.4320 -166.4774  250.4395 H   0  0  0  0  0
  176.1317 -166.6622  252.1500 H   0  0  0  0  0
  175.4019 -164.8078  251.3121 C   0  0  0  0  0
  175.3230 -164.4569  250.2771 H   0  0  0  0  0
  174.4132 -165.1931  251.5805 H   0  0  0  0  0
  175.7728 -163.6341  252.2075 C   0  0  0  0  0
  174.9964 -162.8637  252.1653 H   0  0  0  0  0
  175.8088 -163.9756  253.2480 H   0  0  0  0  0
  177.1228 -163.0278  251.8244 C   0  0  0  0  0
  176.9736 -162.2012  251.1219 H   0  0  0  0  0
  177.5742 -162.5824  252.7170 H   0  0  0  0  0
  178.0898 -164.0337  251.2001 C   0  0  0  0  0
  177.9754 -164.0214  250.1105 H   0  0  0  0  0
  179.1214 -163.7291  251.4027 H   0  0  0  0  0
  1  2  1  0  0  0
  2  3  1  0  0  0
  2  4  1  0  0  0
  2 16  1  0  0  0
  4  5  1  0  0  0
  4  6  1  0  0  0
  4  7  1  0  0  0
  7  8  1  0  0  0
  7  9  1  0  0  0
  7 10  1  0  0  0
 10 11  1  0  0  0
 10 12  1  0  0  0
 10 13  1  0  0  0
 13 14  1  0  0  0
 13 15  1  0  0  0
 13 16  1  0  0  0
 16 17  1  0  0  0
 16 18  1  0  0  0
M  END
$$$$
