Ethane
 OpenBabel06270619323D

  8  7  0  0  0  0  0  0  0  0999 V2000
   -2.0937   -0.0215   -1.0158 H   0  0  0  0  0
   -2.5075   -0.0407   -2.0278 C   0  0  0  0  0
   -2.1122    0.8182   -2.5774 H   0  0  0  0  0
   -2.1633   -0.9532   -2.5225 H   0  0  0  0  0
   -4.0182    0.0047   -1.9858 C   0  0  0  0  0
   -4.4138   -0.8546   -1.4371 H   0  0  0  0  0
   -4.3626    0.9173   -1.4908 H   0  0  0  0  0
   -4.4323   -0.0143   -2.9980 H   0  0  0  0  0
  1  2  1  0  0  0
  2  3  1  0  0  0
  2  4  1  0  0  0
  2  5  1  0  0  0
  5  6  1  0  0  0
  5  7  1  0  0  0
  5  8  1  0  0  0
M  END
$$$$
