Pentane
 OpenBabel06270619323D

 17 16  0  0  0  0  0  0  0  0999 V2000
   -1.9568    0.0594   -0.8931 H   0  0  0  0  0
   -2.5005    0.0546   -1.8422 C   0  0  0  0  0
   -2.2045    0.9451   -2.4051 H   0  0  0  0  0
   -2.1848   -0.8276   -2.4074 H   0  0  0  0  0
   -3.9992    0.0376   -1.5933 C   0  0  0  0  0
   -4.2538   -0.8461   -0.9991 H   0  0  0  0  0
   -4.2735    0.9139   -0.9968 H   0  0  0  0  0
   -4.7870    0.0306   -2.9013 C   0  0  0  0  0
   -4.5235    0.9134   -3.4942 H   0  0  0  0  0
   -4.5041   -0.8448   -3.4963 H   0  0  0  0  0
   -6.2927    0.0132   -2.6484 C   0  0  0  0  0
   -6.5627   -0.8705   -2.0610 H   0  0  0  0  0
   -6.5823    0.8894   -2.0589 H   0  0  0  0  0
   -7.0795    0.0062   -3.9481 C   0  0  0  0  0
   -6.8601    0.8959   -4.5463 H   0  0  0  0  0
   -6.8402   -0.8766   -4.5487 H   0  0  0  0  0
   -8.1538   -0.0062   -3.7433 H   0  0  0  0  0
  1  2  1  0  0  0
  2  3  1  0  0  0
  2  4  1  0  0  0
  2  5  1  0  0  0
  5  6  1  0  0  0
  5  7  1  0  0  0
  5  8  1  0  0  0
  8  9  1  0  0  0
  8 10  1  0  0  0
  8 11  1  0  0  0
 11 12  1  0  0  0
 11 13  1  0  0  0
 11 14  1  0  0  0
 14 15  1  0  0  0
 14 16  1  0  0  0
 14 17  1  0  0  0
M  END
$$$$
