Tetracosane
 OpenBabel06270619323D

 74 73  0  0  0  0  0  0  0  0999 V2000
   -1.9149    0.0192   -0.9076 H   0  0  0  0  0
   -2.4424    0.0026   -1.8657 C   0  0  0  0  0
   -2.1651    0.9052   -2.4187 H   0  0  0  0  0
   -2.0908   -0.8660   -2.4306 H   0  0  0  0  0
   -3.9439   -0.0618   -1.6422 C   0  0  0  0  0
   -4.1816   -0.9559   -1.0565 H   0  0  0  0  0
   -4.2537    0.8023   -1.0453 H   0  0  0  0  0
   -4.7099   -0.0835   -2.9630 C   0  0  0  0  0
   -4.4629    0.8107   -3.5459 H   0  0  0  0  0
   -4.3904   -0.9461   -3.5581 H   0  0  0  0  0
   -6.2186   -0.1481   -2.7354 C   0  0  0  0  0
   -6.4639   -1.0430   -2.1529 H   0  0  0  0  0
   -6.5376    0.7148   -2.1405 H   0  0  0  0  0
   -6.9856   -0.1711   -4.0560 C   0  0  0  0  0
   -6.7403    0.7235   -4.6388 H   0  0  0  0  0
   -6.6674   -1.0340   -4.6512 H   0  0  0  0  0
   -8.4945   -0.2351   -3.8279 C   0  0  0  0  0
   -8.7404   -1.1298   -3.2454 H   0  0  0  0  0
   -8.8136    0.6277   -3.2331 H   0  0  0  0  0
   -9.2610   -0.2576   -5.1489 C   0  0  0  0  0
   -9.0153    0.6372   -5.7313 H   0  0  0  0  0
   -8.9417   -1.1203   -5.7439 H   0  0  0  0  0
  -10.7699   -0.3225   -4.9211 C   0  0  0  0  0
  -11.0159   -1.2173   -4.3388 H   0  0  0  0  0
  -11.0887    0.5402   -4.3257 H   0  0  0  0  0
  -11.5362   -0.3434   -6.2421 C   0  0  0  0  0
  -11.2918    0.5527   -6.8228 H   0  0  0  0  0
  -11.2166   -1.2045   -6.8392 H   0  0  0  0  0
  -13.0451   -0.4102   -6.0146 C   0  0  0  0  0
  -13.2902   -1.3070   -5.4351 H   0  0  0  0  0
  -13.3652    0.4505   -5.4172 H   0  0  0  0  0
  -13.8110   -0.4291   -7.3359 C   0  0  0  0  0
  -13.5664    0.4678   -7.9153 H   0  0  0  0  0
  -13.4908   -1.2890   -7.9346 H   0  0  0  0  0
  -15.3199   -0.4957   -7.1080 C   0  0  0  0  0
  -15.5649   -1.3923   -6.5281 H   0  0  0  0  0
  -15.6399    0.3649   -6.5104 H   0  0  0  0  0
  -16.0861   -0.5152   -8.4291 C   0  0  0  0  0
  -15.8414    0.3816   -9.0089 H   0  0  0  0  0
  -15.7664   -1.3757   -9.0270 H   0  0  0  0  0
  -17.5950   -0.5820   -8.2018 C   0  0  0  0  0
  -17.8397   -1.4789   -7.6223 H   0  0  0  0  0
  -17.9151    0.2781   -7.6036 H   0  0  0  0  0
  -18.3615   -0.6013   -9.5227 C   0  0  0  0  0
  -18.1161    0.2946  -10.1034 H   0  0  0  0  0
  -18.0418   -1.4623  -10.1199 H   0  0  0  0  0
  -19.8704   -0.6674   -9.2952 C   0  0  0  0  0
  -20.1152   -1.5629   -8.7136 H   0  0  0  0  0
  -20.1893    0.1942   -8.6985 H   0  0  0  0  0
  -20.6369   -0.6881  -10.6160 C   0  0  0  0  0
  -20.3911    0.2070  -11.1979 H   0  0  0  0  0
  -20.3183   -1.5502  -11.2121 H   0  0  0  0  0
  -22.1458   -0.7529  -10.3885 C   0  0  0  0  0
  -22.3915   -1.6476   -9.8059 H   0  0  0  0  0
  -22.4643    0.1097   -9.7930 H   0  0  0  0  0
  -22.9122   -0.7741  -11.7096 C   0  0  0  0  0
  -22.6671    0.1211  -12.2916 H   0  0  0  0  0
  -22.5941   -1.6365  -12.3057 H   0  0  0  0  0
  -24.4209   -0.8386  -11.4805 C   0  0  0  0  0
  -24.6666   -1.7329  -10.8973 H   0  0  0  0  0
  -24.7387    0.0245  -10.8853 H   0  0  0  0  0
  -25.1884   -0.8610  -12.8008 C   0  0  0  0  0
  -24.9422    0.0326  -13.3847 H   0  0  0  0  0
  -24.8707   -1.7248  -13.3950 H   0  0  0  0  0
  -26.6972   -0.9251  -12.5723 C   0  0  0  0  0
  -26.9433   -1.8201  -11.9905 H   0  0  0  0  0
  -27.0161   -0.0630  -11.9763 H   0  0  0  0  0
  -27.4635   -0.9457  -13.8928 C   0  0  0  0  0
  -27.2291   -0.0474  -14.4734 H   0  0  0  0  0
  -27.1506   -1.8051  -14.4949 H   0  0  0  0  0
  -28.9647   -1.0136  -13.6685 C   0  0  0  0  0
  -29.2415   -1.9210  -13.1232 H   0  0  0  0  0
  -29.3167   -0.1497  -13.0964 H   0  0  0  0  0
  -29.4937   -1.0195  -14.6260 H   0  0  0  0  0
  1  2  1  0  0  0
  2  3  1  0  0  0
  2  4  1  0  0  0
  2  5  1  0  0  0
  5  6  1  0  0  0
  5  7  1  0  0  0
  5  8  1  0  0  0
  8  9  1  0  0  0
  8 10  1  0  0  0
  8 11  1  0  0  0
 11 12  1  0  0  0
 11 13  1  0  0  0
 11 14  1  0  0  0
 14 15  1  0  0  0
 14 16  1  0  0  0
 14 17  1  0  0  0
 17 18  1  0  0  0
 17 19  1  0  0  0
 17 20  1  0  0  0
 20 21  1  0  0  0
 20 22  1  0  0  0
 20 23  1  0  0  0
 23 24  1  0  0  0
 23 25  1  0  0  0
 23 26  1  0  0  0
 26 27  1  0  0  0
 26 28  1  0  0  0
 26 29  1  0  0  0
 29 30  1  0  0  0
 29 31  1  0  0  0
 29 32  1  0  0  0
 32 33  1  0  0  0
 32 34  1  0  0  0
 32 35  1  0  0  0
 35 36  1  0  0  0
 35 37  1  0  0  0
 35 38  1  0  0  0
 38 39  1  0  0  0
 38 40  1  0  0  0
 38 41  1  0  0  0
 41 42  1  0  0  0
 41 43  1  0  0  0
 41 44  1  0  0  0
 44 45  1  0  0  0
 44 46  1  0  0  0
 44 47  1  0  0  0
 47 48  1  0  0  0
 47 49  1  0  0  0
 47 50  1  0  0  0
 50 51  1  0  0  0
 50 52  1  0  0  0
 50 53  1  0  0  0
 53 54  1  0  0  0
 53 55  1  0  0  0
 53 56  1  0  0  0
 56 57  1  0  0  0
 56 58  1  0  0  0
 56 59  1  0  0  0
 59 60  1  0  0  0
 59 61  1  0  0  0
 59 62  1  0  0  0
 62 63  1  0  0  0
 62 64  1  0  0  0
 62 65  1  0  0  0
 65 66  1  0  0  0
 65 67  1  0  0  0
 65 68  1  0  0  0
 68 69  1  0  0  0
 68 70  1  0  0  0
 68 71  1  0  0  0
 71 72  1  0  0  0
 71 73  1  0  0  0
 71 74  1  0  0  0
M  END
$$$$
