Undecane
 OpenBabel06270619323D

 35 34  0  0  0  0  0  0  0  0999 V2000
   -1.9794    0.0578   -0.9583 H   0  0  0  0  0
   -2.5762    0.0119   -1.8738 C   0  0  0  0  0
   -2.4173    0.9440   -2.4246 H   0  0  0  0  0
   -2.1995   -0.8143   -2.4844 H   0  0  0  0  0
   -4.0451   -0.1809   -1.5368 C   0  0  0  0  0
   -4.1628   -1.1023   -0.9573 H   0  0  0  0  0
   -4.3767    0.6439   -0.8973 H   0  0  0  0  0
   -4.9078   -0.2415   -2.7954 C   0  0  0  0  0
   -4.7828    0.6820   -3.3711 H   0  0  0  0  0
   -4.5656   -1.0617   -3.4360 H   0  0  0  0  0
   -6.3837   -0.4385   -2.4550 C   0  0  0  0  0
   -6.5075   -1.3631   -1.8803 H   0  0  0  0  0
   -6.7249    0.3811   -1.8131 H   0  0  0  0  0
   -7.2474   -0.4978   -3.7132 C   0  0  0  0  0
   -7.1232    0.4265   -4.2881 H   0  0  0  0  0
   -6.9062   -1.3175   -4.3548 H   0  0  0  0  0
   -8.7233   -0.6945   -3.3723 C   0  0  0  0  0
   -8.8474   -1.6185   -2.7969 H   0  0  0  0  0
   -9.0643    0.1257   -2.7311 H   0  0  0  0  0
   -9.5869   -0.7542   -4.6306 C   0  0  0  0  0
   -9.4625    0.1698   -5.2058 H   0  0  0  0  0
   -9.2457   -1.5743   -5.2718 H   0  0  0  0  0
  -11.0629   -0.9502   -4.2897 C   0  0  0  0  0
  -11.1875   -1.8742   -3.7145 H   0  0  0  0  0
  -11.4039   -0.1301   -3.6484 H   0  0  0  0  0
  -11.9263   -1.0095   -5.5481 C   0  0  0  0  0
  -11.8018   -0.0858   -6.1239 H   0  0  0  0  0
  -11.5858   -1.8301   -6.1892 H   0  0  0  0  0
  -13.4017   -1.2051   -5.2067 C   0  0  0  0  0
  -13.5342   -2.1304   -4.6365 H   0  0  0  0  0
  -13.7501   -0.3852   -4.5702 H   0  0  0  0  0
  -14.2629   -1.2642   -6.4570 C   0  0  0  0  0
  -14.1835   -0.3380   -7.0340 H   0  0  0  0  0
  -13.9645   -2.0956   -7.1029 H   0  0  0  0  0
  -15.3141   -1.4048   -6.1893 H   0  0  0  0  0
  1  2  1  0  0  0
  2  3  1  0  0  0
  2  4  1  0  0  0
  2  5  1  0  0  0
  5  6  1  0  0  0
  5  7  1  0  0  0
  5  8  1  0  0  0
  8  9  1  0  0  0
  8 10  1  0  0  0
  8 11  1  0  0  0
 11 12  1  0  0  0
 11 13  1  0  0  0
 11 14  1  0  0  0
 14 15  1  0  0  0
 14 16  1  0  0  0
 14 17  1  0  0  0
 17 18  1  0  0  0
 17 19  1  0  0  0
 17 20  1  0  0  0
 20 21  1  0  0  0
 20 22  1  0  0  0
 20 23  1  0  0  0
 23 24  1  0  0  0
 23 25  1  0  0  0
 23 26  1  0  0  0
 26 27  1  0  0  0
 26 28  1  0  0  0
 26 29  1  0  0  0
 29 30  1  0  0  0
 29 31  1  0  0  0
 29 32  1  0  0  0
 32 33  1  0  0  0
 32 34  1  0  0  0
 32 35  1  0  0  0
M  END
$$$$
