(3E)-Penta-1,3-diene
 OpenBabel06270619323D

 13 12  0  0  0  0  0  0  0  0999 V2000
    2.6304   -0.1356   -0.2268 C   0  0  0  0  0
    1.4506    0.4904   -0.2696 C   0  0  0  0  0
    0.1871   -0.2037    0.0335 C   0  0  0  0  0
   -0.9907    0.4280   -0.0110 C   0  0  0  0  0
    2.6942   -1.1906    0.0367 H   0  0  0  0  0
    3.5453    0.4092   -0.4571 H   0  0  0  0  0
    0.2219   -1.2596    0.3001 H   0  0  0  0  0
   -2.2892   -0.2673    0.2959 C   0  0  0  0  0
   -2.7777    0.2330    1.1452 H   0  0  0  0  0
   -2.1276   -1.3252    0.5505 H   0  0  0  0  0
   -2.9494   -0.2089   -0.5821 H   0  0  0  0  0
    1.4306    1.5466   -0.5378 H   0  0  0  0  0
   -1.0256    1.4838   -0.2776 H   0  0  0  0  0
  1  2  2  0  0  0
  1  5  1  0  0  0
  1  6  1  0  0  0
  2  3  1  0  0  0
  2 12  1  0  0  0
  3  4  2  0  0  0
  3  7  1  0  0  0
  4  8  1  0  0  0
  4 13  1  0  0  0
  8  9  1  0  0  0
  8 10  1  0  0  0
  8 11  1  0  0  0
M  END
$$$$
