But-1-ene
 OpenBabel06270619323D

 12 11  0  0  0  0  0  0  0  0999 V2000
    1.4854   -0.3998   -0.4772 C   0  0  0  0  0
    0.4777    0.5730    0.1696 C   0  0  0  0  0
   -0.7576   -0.1821    0.5805 C   0  0  0  0  0
   -1.9634    0.0912    0.0723 C   0  0  0  0  0
   -0.6624   -0.9790    1.3178 H   0  0  0  0  0
    1.7609   -1.1855    0.2423 H   0  0  0  0  0
    2.3903    0.1501   -0.7766 H   0  0  0  0  0
    1.0325   -0.8639   -1.3661 H   0  0  0  0  0
    0.9354    1.0319    1.0591 H   0  0  0  0  0
   -2.1000    0.8793   -0.6672 H   0  0  0  0  0
   -2.8310   -0.4812    0.3983 H   0  0  0  0  0
    0.2323    1.3660   -0.5528 H   0  0  0  0  0
  2  1  1  0  0  0
  1  6  1  0  0  0
  1  7  1  0  0  0
  1  8  1  0  0  0
  2  3  1  0  0  0
  2  9  1  0  0  0
  2 12  1  0  0  0
  3  5  1  0  0  0
  4  3  2  0  0  0
  4 10  1  0  0  0
  4 11  1  0  0  0
M  END
$$$$
