(E)-But-2-ene
 OpenBabel06270619323D

 12 11  0  0  0  0  0  0  0  0999 V2000
    1.8569   -0.4651   -0.3439 C   0  0  0  0  0
    0.5359    0.2542   -0.3091 C   0  0  0  0  0
   -0.5359   -0.2542    0.3091 C   0  0  0  0  0
   -1.8569    0.4651    0.3439 C   0  0  0  0  0
   -0.4704   -1.2198    0.8097 H   0  0  0  0  0
    1.8052   -1.4248    0.1912 H   0  0  0  0  0
    2.6264    0.1645    0.1270 H   0  0  0  0  0
    2.1403   -0.6549   -1.3898 H   0  0  0  0  0
    0.4704    1.2198   -0.8097 H   0  0  0  0  0
   -1.8052    1.4248   -0.1912 H   0  0  0  0  0
   -2.1403    0.6549    1.3898 H   0  0  0  0  0
   -2.6264   -0.1645   -0.1270 H   0  0  0  0  0
  2  1  1  0  0  0
  1  6  1  0  0  0
  1  7  1  0  0  0
  1  8  1  0  0  0
  2  3  2  0  0  0
  2  9  1  0  0  0
  3  4  1  0  0  0
  3  5  1  0  0  0
  4 10  1  0  0  0
  4 11  1  0  0  0
  4 12  1  0  0  0
M  END
$$$$
