(E)-Hex-2-ene
 OpenBabel06270619323D

 18 17  0  0  0  0  0  0  0  0999 V2000
    1.7413    1.2364    0.2104 C   0  0  0  0  0
    1.6584    0.3332   -1.0393 C   0  0  0  0  0
    0.1887    0.0152   -1.3918 C   0  0  0  0  0
   -0.4617   -0.7430   -0.2659 C   0  0  0  0  0
    1.1938    2.1739    0.0316 H   0  0  0  0  0
    1.3074    0.7232    1.0814 H   0  0  0  0  0
    2.2031   -0.6044   -0.8497 H   0  0  0  0  0
    2.1267    0.8530   -1.8893 H   0  0  0  0  0
   -0.3442    0.9557   -1.5973 H   0  0  0  0  0
   -2.1513   -1.0046    1.5429 C   0  0  0  0  0
   -3.2112   -1.1772    1.3040 H   0  0  0  0  0
   -2.0844   -0.4074    2.4644 H   0  0  0  0  0
   -1.6610   -1.9749    1.7107 H   0  0  0  0  0
    2.7956    1.4704    0.4217 H   0  0  0  0  0
   -1.5032   -0.2505    0.4140 C   0  0  0  0  0
   -0.0553   -1.7203   -0.0076 H   0  0  0  0  0
   -1.9079    0.7284    0.1588 H   0  0  0  0  0
    0.1650   -0.6072   -2.2991 H   0  0  0  0  0
  1  2  1  0  0  0
  1  5  1  0  0  0
  1  6  1  0  0  0
  1 14  1  0  0  0
  2  3  1  0  0  0
  2  7  1  0  0  0
  2  8  1  0  0  0
  3  4  1  0  0  0
  3  9  1  0  0  0
  3 18  1  0  0  0
  4 16  1  0  0  0
  4 15  2  0  0  0
 10 11  1  0  0  0
 10 12  1  0  0  0
 10 13  1  0  0  0
 15 10  1  0  0  0
 15 17  1  0  0  0
M  END
$$$$
