(E)-Oct-4-ene
 OpenBabel06270619323D

 24 23  0  0  0  0  0  0  0  0999 V2000
   -1.8726   -0.9538   -0.9497 C   0  0  0  0  0
    0.0422    0.4367   -0.1798 C   0  0  0  0  0
    1.4434    0.6194    0.3386 C   0  0  0  0  0
    2.2646    1.4332   -0.6848 C   0  0  0  0  0
    3.7074    1.6417   -0.1773 C   0  0  0  0  0
    0.1313   -1.6656   -0.2688 H   0  0  0  0  0
   -0.5610    1.3289   -0.3444 H   0  0  0  0  0
    1.9315   -0.3529    0.5030 H   0  0  0  0  0
    1.4042    1.1632    1.2945 H   0  0  0  0  0
    1.7900    2.4144   -0.8394 H   0  0  0  0  0
    2.2907    0.8913   -1.6426 H   0  0  0  0  0
    4.2763    2.2234   -0.9182 H   0  0  0  0  0
    4.1980    0.6678   -0.0303 H   0  0  0  0  0
    3.6935    2.1891    0.7771 H   0  0  0  0  0
   -2.8259   -0.9828    1.4080 C   0  0  0  0  0
   -2.3559    0.0169   -1.1368 H   0  0  0  0  0
   -2.2467   -2.7297    0.2511 H   0  0  0  0  0
   -3.7240   -1.9043   -0.3380 H   0  0  0  0  0
   -2.7142   -1.7493    0.0722 C   0  0  0  0  0
   -1.8293   -0.8447    1.8530 H   0  0  0  0  0
   -3.4530   -1.5571    2.1064 H   0  0  0  0  0
   -3.2866    0.0017    1.2372 H   0  0  0  0  0
   -0.4697   -0.7723   -0.4354 C   0  0  0  0  0
   -1.8341   -1.5148   -1.8957 H   0  0  0  0  0
  1 16  1  0  0  0
  1 19  1  0  0  0
 23  1  1  0  0  0
  1 24  1  0  0  0
  2  3  1  0  0  0
  2  7  1  0  0  0
  2 23  2  0  0  0
  3  4  1  0  0  0
  3  8  1  0  0  0
  3  9  1  0  0  0
  4  5  1  0  0  0
  4 10  1  0  0  0
  4 11  1  0  0  0
  5 12  1  0  0  0
  5 13  1  0  0  0
  5 14  1  0  0  0
 23  6  1  0  0  0
 19 15  1  0  0  0
 15 20  1  0  0  0
 15 21  1  0  0  0
 15 22  1  0  0  0
 19 17  1  0  0  0
 19 18  1  0  0  0
M  END
$$$$
