Ethene
 OpenBabel06270619323D

  6  5  0  0  0  0  0  0  0  0999 V2000
   -1.9740    0.0433   -0.9432 H   0  0  0  0  0
   -2.4361   -0.0293   -1.9204 C   0  0  0  0  0
   -1.7956   -0.1094   -2.7906 H   0  0  0  0  0
   -3.7638   -0.0203   -2.0494 C   0  0  0  0  0
   -4.4043    0.0597   -1.1793 H   0  0  0  0  0
   -4.2258   -0.0928   -3.0267 H   0  0  0  0  0
  1  2  1  0  0  0
  2  3  1  0  0  0
  2  4  2  0  0  0
  4  5  1  0  0  0
  4  6  1  0  0  0
M  END
$$$$
