Hept-1-ene
 OpenBabel06270619323D

 21 20  0  0  0  0  0  0  0  0999 V2000
    3.3164    1.0139    0.1209 C   0  0  0  0  0
    1.8008    1.2516    0.2915 C   0  0  0  0  0
    1.0045    0.0185   -0.1903 C   0  0  0  0  0
   -0.5118    0.2591   -0.0181 C   0  0  0  0  0
   -1.3107   -0.9714   -0.4993 C   0  0  0  0  0
   -2.7825   -0.7100   -0.3246 C   0  0  0  0  0
   -3.5498   -1.4551    0.4772 C   0  0  0  0  0
    3.8681    1.9004    0.4682 H   0  0  0  0  0
    3.5511    0.8360   -0.9393 H   0  0  0  0  0
    3.6281    0.1407    0.7134 H   0  0  0  0  0
    1.5062    2.1339   -0.2971 H   0  0  0  0  0
    1.5830    1.4389    1.3542 H   0  0  0  0  0
    1.3040   -0.8616    0.3990 H   0  0  0  0  0
    1.2262   -0.1666   -1.2524 H   0  0  0  0  0
   -0.8124    1.1397   -0.6061 H   0  0  0  0  0
   -0.7374    0.4410    1.0438 H   0  0  0  0  0
   -1.0002   -1.8545    0.0792 H   0  0  0  0  0
   -1.1019   -1.1525   -1.5644 H   0  0  0  0  0
   -3.2353    0.1166   -0.8717 H   0  0  0  0  0
   -4.6112   -1.2294    0.5739 H   0  0  0  0  0
   -3.1354   -2.2893    1.0419 H   0  0  0  0  0
  1  2  1  0  0  0
  1  8  1  0  0  0
  1  9  1  0  0  0
  1 10  1  0  0  0
  2  3  1  0  0  0
  2 11  1  0  0  0
  2 12  1  0  0  0
  3  4  1  0  0  0
  3 13  1  0  0  0
  3 14  1  0  0  0
  4  5  1  0  0  0
  4 15  1  0  0  0
  4 16  1  0  0  0
  5  6  1  0  0  0
  5 17  1  0  0  0
  5 18  1  0  0  0
  6  7  2  0  0  0
  6 19  1  0  0  0
  7 20  1  0  0  0
  7 21  1  0  0  0
M  END
$$$$
