Hex-1-ene
 OpenBabel06270619323D

 18 17  0  0  0  0  0  0  0  0999 V2000
   -1.9584   -0.0448   -0.9855 H   0  0  0  0  0
   -2.4708   -0.0040   -1.9510 C   0  0  0  0  0
   -2.1929    0.9339   -2.4412 H   0  0  0  0  0
   -2.1022   -0.8322   -2.5639 H   0  0  0  0  0
   -3.9749   -0.0947   -1.7563 C   0  0  0  0  0
   -4.2149   -1.0377   -1.2541 H   0  0  0  0  0
   -4.2997    0.7127   -1.0918 H   0  0  0  0  0
   -4.7214   -0.0075   -3.0857 C   0  0  0  0  0
   -4.4822    0.9423   -3.5779 H   0  0  0  0  0
   -4.3732   -0.8032   -3.7543 H   0  0  0  0  0
   -6.2320   -0.1231   -2.8875 C   0  0  0  0  0
   -6.4696   -1.0780   -2.4050 H   0  0  0  0  0
   -6.5798    0.6634   -2.2099 H   0  0  0  0  0
   -6.9660    0.0106   -4.1867 C   0  0  0  0  0
   -7.3505    0.9909   -4.4459 H   0  0  0  0  0
   -7.1826   -1.0030   -5.0319 C   0  0  0  0  0
   -6.8247   -2.0042   -4.8213 H   0  0  0  0  0
   -7.7258   -0.8416   -5.9554 H   0  0  0  0  0
  1  2  1  0  0  0
  2  3  1  0  0  0
  2  4  1  0  0  0
  2  5  1  0  0  0
  5  6  1  0  0  0
  5  7  1  0  0  0
  5  8  1  0  0  0
  8  9  1  0  0  0
  8 10  1  0  0  0
  8 11  1  0  0  0
 11 12  1  0  0  0
 11 13  1  0  0  0
 11 14  1  0  0  0
 14 15  1  0  0  0
 14 16  2  0  0  0
 16 17  1  0  0  0
 16 18  1  0  0  0
M  END
$$$$
