Propene
 OpenBabel06270619323D

  9  8  0  0  0  0  0  0  0  0999 V2000
   -1.9621   -0.0064   -0.9887 H   0  0  0  0  0
   -2.5190    0.1080   -1.9112 C   0  0  0  0  0
   -1.9599    0.2695   -2.8256 H   0  0  0  0  0
   -3.8548    0.0496   -1.9082 C   0  0  0  0  0
   -4.3673   -0.1139   -0.9671 H   0  0  0  0  0
   -4.6994    0.1958   -3.1288 C   0  0  0  0  0
   -4.1007    0.3580   -4.0307 H   0  0  0  0  0
   -5.3009   -0.7052   -3.2783 H   0  0  0  0  0
   -5.3784    1.0455   -3.0149 H   0  0  0  0  0
  1  2  1  0  0  0
  2  3  1  0  0  0
  2  4  2  0  0  0
  4  5  1  0  0  0
  4  6  1  0  0  0
  6  7  1  0  0  0
  6  8  1  0  0  0
  6  9  1  0  0  0
M  END
$$$$
