(Z)-But-2-ene
 OpenBabel06270619323D

 12 11  0  0  0  0  0  0  0  0999 V2000
    5.7775   -8.4955    0.0233 H   0  0  0  0  0
    5.7481   -7.3939   -0.0139 C   0  0  0  0  0
    6.9234   -6.7470   -0.0566 C   0  0  0  0  0
    7.8040   -7.3645   -0.0477 H   0  0  0  0  0
    7.1260   -5.2723   -0.1308 C   0  0  0  0  0
    7.7086   -5.0333   -1.0246 H   0  0  0  0  0
    7.7346   -4.9588    0.7229 H   0  0  0  0  0
    6.2146   -4.6956   -0.1353 H   0  0  0  0  0
    4.3456   -6.8195   -0.0276 C   0  0  0  0  0
    4.3432   -5.7302   -0.0670 H   0  0  0  0  0
    3.8335   -7.1213    0.9039 H   0  0  0  0  0
    3.7904   -7.1842   -0.8834 H   0  0  0  0  0
  1  2  1  0  0  0
  2  3  2  0  0  0
  2  9  1  0  0  0
  3  4  1  0  0  0
  3  5  1  0  0  0
  5  6  1  0  0  0
  5  7  1  0  0  0
  5  8  1  0  0  0
  9 10  1  0  0  0
  9 11  1  0  0  0
  9 12  1  0  0  0
M  END
$$$$
