(Z)-Hex-2-ene
 OpenBabel06270619323D

 18 17  0  0  0  0  0  0  0  0999 V2000
    1.6891    0.8384    0.5781 C   0  0  0  0  0
    1.6906   -0.0694   -0.6710 C   0  0  0  0  0
    0.2491   -0.4091   -1.1097 C   0  0  0  0  0
   -0.4436   -1.2080   -0.0363 C   0  0  0  0  0
    1.1584    1.7766    0.3581 H   0  0  0  0  0
    1.1949    0.3294    1.4189 H   0  0  0  0  0
    2.2351   -0.9994   -0.4463 H   0  0  0  0  0
    2.2024    0.4545   -1.4929 H   0  0  0  0  0
   -0.2843    0.5212   -1.3499 H   0  0  0  0  0
    2.7269    1.0710    0.8604 H   0  0  0  0  0
   -1.5158   -0.7932    0.6490 C   0  0  0  0  0
   -0.0433   -2.1957    0.1912 H   0  0  0  0  0
   -2.1758    0.5442    0.4519 C   0  0  0  0  0
    0.2957   -1.0238   -2.0215 H   0  0  0  0  0
   -1.9401   -1.4653    1.3946 H   0  0  0  0  0
   -1.4359    1.3552    0.5181 H   0  0  0  0  0
   -2.9314    0.6974    1.2369 H   0  0  0  0  0
   -2.6719    0.5760   -0.5295 H   0  0  0  0  0
  1  2  1  0  0  0
  1  5  1  0  0  0
  1  6  1  0  0  0
  1 10  1  0  0  0
  2  3  1  0  0  0
  2  7  1  0  0  0
  2  8  1  0  0  0
  3  4  1  0  0  0
  3  9  1  0  0  0
  3 14  1  0  0  0
  4 12  1  0  0  0
  4 11  2  0  0  0
 11 13  1  0  0  0
 11 15  1  0  0  0
 13 16  1  0  0  0
 13 17  1  0  0  0
 13 18  1  0  0  0
M  END
$$$$
