(Z)-Oct-2-ene
 OpenBabel06270619323D

 24 23  0  0  0  0  0  0  0  0999 V2000
   -1.0861   -1.1826   -0.6360 C   0  0  0  0  0
   -1.6715   -0.8519    0.7120 C   0  0  0  0  0
   -2.6600    0.0239    0.9324 C   0  0  0  0  0
    0.0817   -0.2301   -0.9780 C   0  0  0  0  0
    1.2239   -0.3518    0.0561 C   0  0  0  0  0
    2.4008    0.5682   -0.3381 C   0  0  0  0  0
    3.5432    0.4527    0.6936 C   0  0  0  0  0
   -1.8506   -1.1223   -1.4238 H   0  0  0  0  0
   -0.7120   -2.2174   -0.6138 H   0  0  0  0  0
   -0.2848    0.8073   -0.9973 H   0  0  0  0  0
    0.4674   -0.4916   -1.9752 H   0  0  0  0  0
    1.5740   -1.3946    0.0936 H   0  0  0  0  0
    0.8579   -0.0575    1.0511 H   0  0  0  0  0
    2.0549    1.6125   -0.3771 H   0  0  0  0  0
    2.7809    0.2777   -1.3295 H   0  0  0  0  0
    4.3725    1.1129    0.3979 H   0  0  0  0  0
    3.9066   -0.5850    0.7361 H   0  0  0  0  0
    3.1818    0.7521    1.6888 H   0  0  0  0  0
   -3.3439    0.8589   -0.1183 C   0  0  0  0  0
   -1.2571   -1.3712    1.5760 H   0  0  0  0  0
   -2.9992    0.1526    1.9602 H   0  0  0  0  0
   -4.3608    0.4725   -0.2819 H   0  0  0  0  0
   -2.8059    0.8702   -1.0754 H   0  0  0  0  0
   -3.4135    1.8945    0.2465 H   0  0  0  0  0
  2  1  1  0  0  0
  1  4  1  0  0  0
  1  8  1  0  0  0
  1  9  1  0  0  0
  2  3  2  0  0  0
  2 20  1  0  0  0
  3 19  1  0  0  0
  3 21  1  0  0  0
  4  5  1  0  0  0
  4 10  1  0  0  0
  4 11  1  0  0  0
  5  6  1  0  0  0
  5 12  1  0  0  0
  5 13  1  0  0  0
  6  7  1  0  0  0
  6 14  1  0  0  0
  6 15  1  0  0  0
  7 16  1  0  0  0
  7 17  1  0  0  0
  7 18  1  0  0  0
 19 22  1  0  0  0
 19 23  1  0  0  0
 19 24  1  0  0  0
M  END
$$$$
