2-Methylpropan-2-ol
 OpenBabel06270619323D

 15 14  0  0  0  0  0  0  0  0999 V2000
   -2.1375   -0.5071   -2.9385 H   0  0  0  0  0
   -2.6286   -0.1287   -2.0361 C   0  0  0  0  0
   -2.4441   -0.8710   -1.2528 H   0  0  0  0  0
   -2.1396    0.8062   -1.7441 H   0  0  0  0  0
   -4.1287    0.0641   -2.2691 C   0  0  0  0  0
   -4.8260    0.5242   -0.9871 C   0  0  0  0  0
   -4.6891   -0.2044   -0.1814 H   0  0  0  0  0
   -5.9066    0.6130   -1.1387 H   0  0  0  0  0
   -4.4460    1.4913   -0.6424 H   0  0  0  0  0
   -4.3721    1.0614   -3.4014 C   0  0  0  0  0
   -3.9654    2.0505   -3.1667 H   0  0  0  0  0
   -5.4422    1.1699   -3.6061 H   0  0  0  0  0
   -3.9158    0.7153   -4.3346 H   0  0  0  0  0
   -4.6916   -1.1873   -2.6690 O   0  0  0  0  0
   -4.5405   -1.8293   -1.9538 H   0  0  0  0  0
  1  2  1  0  0  0
  2  3  1  0  0  0
  2  4  1  0  0  0
  2  5  1  0  0  0
  5  6  1  0  0  0
  5 10  1  0  0  0
  5 14  1  0  0  0
  6  7  1  0  0  0
  6  8  1  0  0  0
  6  9  1  0  0  0
 10 11  1  0  0  0
 10 12  1  0  0  0
 10 13  1  0  0  0
 14 15  1  0  0  0
M  END
$$$$
