(2R)-Butan-2-ol
 OpenBabel06270619323D

 15 14  0  0  0  0  0  0  0  0999 V2000
    2.0163    0.0687    0.0918 C   0  0  0  0  0
    0.6037    0.6900    0.1349 C   0  0  0  0  0
   -0.4759   -0.4131    0.0658 C   0  0  0  0  0
   -1.8835    0.2201    0.1299 C   0  0  0  0  0
    2.7697    0.8687    0.1499 H   0  0  0  0  0
    2.1554   -0.4881   -0.8468 H   0  0  0  0  0
    2.1511   -0.6151    0.9431 H   0  0  0  0  0
    0.4843    1.3745   -0.7187 H   0  0  0  0  0
    0.4907    1.2583    1.0708 H   0  0  0  0  0
   -0.3252   -1.1416   -1.1593 O   0  0  0  0  0
   -2.0287    0.8923   -0.7289 H   0  0  0  0  0
   -1.9934    0.7939    1.0623 H   0  0  0  0  0
   -2.6498   -0.5691    0.1035 H   0  0  0  0  0
   -0.3489   -1.0979    0.9190 H   0  0  0  0  0
   -0.9655   -1.8416   -1.2173 H   0  0  0  0  0
  1  2  1  0  0  0
  1  5  1  0  0  0
  1  6  1  0  0  0
  1  7  1  0  0  0
  2  3  1  0  0  0
  2  8  1  0  0  0
  2  9  1  0  0  0
  3  4  1  0  0  0
  3 10  1  0  0  0
  3 14  1  0  0  0
  4 11  1  0  0  0
  4 12  1  0  0  0
  4 13  1  0  0  0
 10 15  1  0  0  0
M  END
$$$$
