(3S)-Heptan-3-ol
 OpenBabel06270619323D

 24 23  0  0  0  0  0  0  0  0999 V2000
   -2.0650    0.0630   -1.0391 H   0  0  0  0  0
   -2.5674   -0.0050   -2.0082 C   0  0  0  0  0
   -2.2415    0.8434   -2.6175 H   0  0  0  0  0
   -2.2340   -0.9252   -2.4977 H   0  0  0  0  0
   -4.0756    0.0012   -1.8239 C   0  0  0  0  0
   -4.3614   -0.8424   -1.1870 H   0  0  0  0  0
   -4.3680    0.9141   -1.2951 H   0  0  0  0  0
   -4.8074   -0.0844   -3.1616 C   0  0  0  0  0
   -4.5203    0.7649   -3.7911 H   0  0  0  0  0
   -4.4917   -0.9906   -3.6898 H   0  0  0  0  0
   -6.3253   -0.0906   -2.9706 C   0  0  0  0  0
   -6.5990   -0.9687   -2.3742 H   0  0  0  0  0
   -6.6224    0.7944   -2.3971 H   0  0  0  0  0
   -7.0820   -0.1189   -4.3025 C   0  0  0  0  0
   -6.7470    0.7146   -4.9302 H   0  0  0  0  0
   -6.7637   -1.3355   -4.9800 O   0  0  0  0  0
   -6.6168   -1.1255   -5.9179 H   0  0  0  0  0
   -8.5961   -0.0307   -4.0735 C   0  0  0  0  0
   -8.9373   -0.8942   -3.4925 H   0  0  0  0  0
   -8.8313    0.8658   -3.4903 H   0  0  0  0  0
   -9.3918    0.0124   -5.3699 C   0  0  0  0  0
   -9.0720    0.8464   -6.0019 H   0  0  0  0  0
   -9.2821   -0.9135   -5.9416 H   0  0  0  0  0
  -10.4564    0.1427   -5.1553 H   0  0  0  0  0
  1  2  1  0  0  0
  2  3  1  0  0  0
  2  4  1  0  0  0
  2  5  1  0  0  0
  5  6  1  0  0  0
  5  7  1  0  0  0
  5  8  1  0  0  0
  8  9  1  0  0  0
  8 10  1  0  0  0
  8 11  1  0  0  0
 11 12  1  0  0  0
 11 13  1  0  0  0
 11 14  1  0  0  0
 14 15  1  0  0  0
 14 16  1  0  0  0
 14 18  1  0  0  0
 16 17  1  0  0  0
 18 19  1  0  0  0
 18 20  1  0  0  0
 18 21  1  0  0  0
 21 22  1  0  0  0
 21 23  1  0  0  0
 21 24  1  0  0  0
M  END
$$$$
