Ethane-1,2-diol
 OpenBabel06270619323D

 10  9  0  0  0  0  0  0  0  0999 V2000
   -2.0258   -0.0237   -1.0599 H   0  0  0  0  0
   -2.6309    0.0024   -1.9709 C   0  0  0  0  0
   -2.3487    0.9096   -2.5144 H   0  0  0  0  0
   -2.3046   -1.1349   -2.7641 O   0  0  0  0  0
   -2.8124   -1.0743   -3.5917 H   0  0  0  0  0
   -4.1140    0.0058   -1.6264 C   0  0  0  0  0
   -4.3831   -0.9025   -1.0792 H   0  0  0  0  0
   -4.7302    0.0266   -2.5308 H   0  0  0  0  0
   -4.4373    1.1337   -0.8187 O   0  0  0  0  0
   -4.2384    1.9343   -1.3346 H   0  0  0  0  0
  1  2  1  0  0  0
  2  3  1  0  0  0
  2  4  1  0  0  0
  2  6  1  0  0  0
  4  5  1  0  0  0
  6  7  1  0  0  0
  6  8  1  0  0  0
  6  9  1  0  0  0
  9 10  1  0  0  0
M  END
$$$$
