Heptan-4-ol
 OpenBabel06270619323D

 24 23  0  0  0  0  0  0  0  0999 V2000
   -2.0479   -0.0403   -0.9980 H   0  0  0  0  0
   -2.6739   -0.0600   -1.8948 C   0  0  0  0  0
   -2.3935    0.7928   -2.5205 H   0  0  0  0  0
   -2.4456   -0.9776   -2.4456 H   0  0  0  0  0
   -4.1441    0.0004   -1.5156 C   0  0  0  0  0
   -4.3870   -0.8634   -0.8880 H   0  0  0  0  0
   -4.3165    0.8946   -0.9084 H   0  0  0  0  0
   -5.0441    0.0148   -2.7522 C   0  0  0  0  0
   -4.8122    0.9090   -3.3419 H   0  0  0  0  0
   -4.8140   -0.8543   -3.3784 H   0  0  0  0  0
   -6.5332    0.0095   -2.3914 C   0  0  0  0  0
   -6.7468   -0.8454   -1.7396 H   0  0  0  0  0
   -6.8285    1.2021   -1.6628 O   0  0  0  0  0
   -7.4329    0.9676   -0.9385 H   0  0  0  0  0
   -7.4022   -0.0604   -3.6540 C   0  0  0  0  0
   -7.2249    0.8285   -4.2703 H   0  0  0  0  0
   -7.1081   -0.9303   -4.2515 H   0  0  0  0  0
   -8.8976   -0.1480   -3.3446 C   0  0  0  0  0
   -9.0936   -0.9991   -2.6845 H   0  0  0  0  0
   -9.2317    0.7506   -2.8173 H   0  0  0  0  0
   -9.7217   -0.3021   -4.6120 C   0  0  0  0  0
   -9.5722    0.5476   -5.2851 H   0  0  0  0  0
   -9.4506   -1.2157   -5.1500 H   0  0  0  0  0
  -10.7870   -0.3569   -4.3694 H   0  0  0  0  0
  1  2  1  0  0  0
  2  3  1  0  0  0
  2  4  1  0  0  0
  2  5  1  0  0  0
  5  6  1  0  0  0
  5  7  1  0  0  0
  5  8  1  0  0  0
  8  9  1  0  0  0
  8 10  1  0  0  0
  8 11  1  0  0  0
 11 12  1  0  0  0
 11 13  1  0  0  0
 11 15  1  0  0  0
 13 14  1  0  0  0
 15 16  1  0  0  0
 15 17  1  0  0  0
 15 18  1  0  0  0
 18 19  1  0  0  0
 18 20  1  0  0  0
 18 21  1  0  0  0
 21 22  1  0  0  0
 21 23  1  0  0  0
 21 24  1  0  0  0
M  END
$$$$
