Hexan-1-ol
 OpenBabel06270619323D

 21 20  0  0  0  0  0  0  0  0999 V2000
   -1.8933    0.0959   -1.0422 H   0  0  0  0  0
   -2.5245   -0.0489   -1.9236 C   0  0  0  0  0
   -2.2620    0.7199   -2.6568 H   0  0  0  0  0
   -2.2853   -1.0265   -2.3529 H   0  0  0  0  0
   -3.9929    0.0369   -1.5431 C   0  0  0  0  0
   -4.2102   -0.7183   -0.7806 H   0  0  0  0  0
   -4.1892    1.0141   -1.0896 H   0  0  0  0  0
   -4.9011   -0.1679   -2.7534 C   0  0  0  0  0
   -4.6671    0.5805   -3.5185 H   0  0  0  0  0
   -4.7032   -1.1489   -3.1993 H   0  0  0  0  0
   -6.3765   -0.0668   -2.3710 C   0  0  0  0  0
   -6.5980   -0.8013   -1.5898 H   0  0  0  0  0
   -6.5780    0.9215   -1.9437 H   0  0  0  0  0
   -7.2847   -0.2976   -3.5796 C   0  0  0  0  0
   -7.0111    0.3963   -4.3812 H   0  0  0  0  0
   -7.1224   -1.3131   -3.9571 H   0  0  0  0  0
   -8.7637   -0.1125   -3.2536 C   0  0  0  0  0
   -8.9632    0.8734   -2.8216 H   0  0  0  0  0
   -9.3587   -0.2022   -4.1670 H   0  0  0  0  0
   -9.2195   -1.1129   -2.3479 O   0  0  0  0  0
   -9.1891   -0.7376   -1.4516 H   0  0  0  0  0
  1  2  1  0  0  0
  2  3  1  0  0  0
  2  4  1  0  0  0
  2  5  1  0  0  0
  5  6  1  0  0  0
  5  7  1  0  0  0
  5  8  1  0  0  0
  8  9  1  0  0  0
  8 10  1  0  0  0
  8 11  1  0  0  0
 11 12  1  0  0  0
 11 13  1  0  0  0
 11 14  1  0  0  0
 14 15  1  0  0  0
 14 16  1  0  0  0
 14 17  1  0  0  0
 17 18  1  0  0  0
 17 19  1  0  0  0
 17 20  1  0  0  0
 20 21  1  0  0  0
M  END
$$$$
