Octan-1-ol
 OpenBabel06270619323D

 27 26  0  0  0  0  0  0  0  0999 V2000
   -1.9246    0.0626   -1.0515 H   0  0  0  0  0
   -2.4930    0.0348   -1.9857 C   0  0  0  0  0
   -2.2178    0.9150   -2.5745 H   0  0  0  0  0
   -2.1865   -0.8571   -2.5406 H   0  0  0  0  0
   -3.9846    0.0135   -1.6968 C   0  0  0  0  0
   -4.2171   -0.8587   -1.0769 H   0  0  0  0  0
   -4.2494    0.9006   -1.1121 H   0  0  0  0  0
   -4.8065   -0.0280   -2.9830 C   0  0  0  0  0
   -4.5636    0.8425   -3.6019 H   0  0  0  0  0
   -4.5338   -0.9154   -3.5649 H   0  0  0  0  0
   -6.3054   -0.0462   -2.6904 C   0  0  0  0  0
   -6.5478   -0.9161   -2.0702 H   0  0  0  0  0
   -6.5774    0.8422   -2.1098 H   0  0  0  0  0
   -7.1279   -0.0891   -3.9767 C   0  0  0  0  0
   -6.8837    0.7793   -4.5984 H   0  0  0  0  0
   -6.8567   -0.9786   -4.5560 H   0  0  0  0  0
   -8.6269   -0.1051   -3.6847 C   0  0  0  0  0
   -8.8712   -0.9734   -3.0632 H   0  0  0  0  0
   -8.8986    0.7848   -3.1065 H   0  0  0  0  0
   -9.4480   -0.1490   -4.9710 C   0  0  0  0  0
   -9.2102    0.7135   -5.6030 H   0  0  0  0  0
   -9.1810   -1.0308   -5.5638 H   0  0  0  0  0
  -10.9428   -0.1683   -4.6861 C   0  0  0  0  0
  -11.2212   -1.0513   -4.1018 H   0  0  0  0  0
  -11.2500    0.7285   -4.1383 H   0  0  0  0  0
  -11.6466   -0.2041   -5.9216 O   0  0  0  0  0
  -12.5956   -0.2189   -5.7098 H   0  0  0  0  0
  1  2  1  0  0  0
  2  3  1  0  0  0
  2  4  1  0  0  0
  2  5  1  0  0  0
  5  6  1  0  0  0
  5  7  1  0  0  0
  5  8  1  0  0  0
  8  9  1  0  0  0
  8 10  1  0  0  0
  8 11  1  0  0  0
 11 12  1  0  0  0
 11 13  1  0  0  0
 11 14  1  0  0  0
 14 15  1  0  0  0
 14 16  1  0  0  0
 14 17  1  0  0  0
 17 18  1  0  0  0
 17 19  1  0  0  0
 17 20  1  0  0  0
 20 21  1  0  0  0
 20 22  1  0  0  0
 20 23  1  0  0  0
 23 24  1  0  0  0
 23 25  1  0  0  0
 23 26  1  0  0  0
 26 27  1  0  0  0
M  END
$$$$
