Pentan-1-ol
 OpenBabel06270619323D

 18 17  0  0  0  0  0  0  0  0999 V2000
   -2.0319    0.0786   -1.0121 H   0  0  0  0  0
   -2.5259   -0.0604   -1.9785 C   0  0  0  0  0
   -2.2246    0.7634   -2.6320 H   0  0  0  0  0
   -2.1588   -0.9922   -2.4193 H   0  0  0  0  0
   -4.0371   -0.0855   -1.8219 C   0  0  0  0  0
   -4.3701    0.8702   -1.4039 H   0  0  0  0  0
   -4.4983   -0.1795   -2.8106 H   0  0  0  0  0
   -4.4918   -1.2336   -0.9234 C   0  0  0  0  0
   -4.1622   -2.1868   -1.3511 H   0  0  0  0  0
   -4.0091   -1.1426    0.0557 H   0  0  0  0  0
   -6.0117   -1.2446   -0.7565 C   0  0  0  0  0
   -6.3247   -0.3051   -0.2881 H   0  0  0  0  0
   -6.4926   -1.2951   -1.7389 H   0  0  0  0  0
   -6.4931   -2.4168    0.0926 C   0  0  0  0  0
   -7.5854   -2.4222    0.1570 H   0  0  0  0  0
   -6.1787   -3.3711   -0.3406 H   0  0  0  0  0
   -5.9708   -2.3372    1.4152 O   0  0  0  0  0
   -6.4824   -1.6612    1.8921 H   0  0  0  0  0
  1  2  1  0  0  0
  2  3  1  0  0  0
  2  4  1  0  0  0
  2  5  1  0  0  0
  5  6  1  0  0  0
  5  7  1  0  0  0
  5  8  1  0  0  0
  8  9  1  0  0  0
  8 10  1  0  0  0
  8 11  1  0  0  0
 11 12  1  0  0  0
 11 13  1  0  0  0
 11 14  1  0  0  0
 14 15  1  0  0  0
 14 16  1  0  0  0
 14 17  1  0  0  0
 17 18  1  0  0  0
M  END
$$$$
