Propan-2-ol
 OpenBabel06270619323D

 12 11  0  0  0  0  0  0  0  0999 V2000
   -1.9242    0.0418   -0.9517 H   0  0  0  0  0
   -2.4849   -0.0223   -1.8893 C   0  0  0  0  0
   -2.2138    0.8616   -2.4756 H   0  0  0  0  0
   -2.1554   -0.9145   -2.4302 H   0  0  0  0  0
   -3.9806   -0.0598   -1.6139 C   0  0  0  0  0
   -4.2150   -0.9262   -0.9871 H   0  0  0  0  0
   -4.3322    1.1161   -0.8886 O   0  0  0  0  0
   -5.1658    0.9358   -0.4207 H   0  0  0  0  0
   -4.7875   -0.1172   -2.9046 C   0  0  0  0  0
   -4.6088    0.7701   -3.5204 H   0  0  0  0  0
   -4.5391   -1.0063   -3.4920 H   0  0  0  0  0
   -5.8597   -0.1349   -2.6873 H   0  0  0  0  0
  1  2  1  0  0  0
  2  3  1  0  0  0
  2  4  1  0  0  0
  2  5  1  0  0  0
  5  6  1  0  0  0
  5  7  1  0  0  0
  5  9  1  0  0  0
  7  8  1  0  0  0
  9 10  1  0  0  0
  9 11  1  0  0  0
  9 12  1  0  0  0
M  END
$$$$
