N,N-Diethylethanamine
 OpenBabel06270619323D

 22 21  0  0  0  0  0  0  0  0999 V2000
    2.2064    0.5019   -0.9159 C   0  0  0  0  0
    1.4400    0.3057    0.4100 C   0  0  0  0  0
    0.0056    0.0716    0.1370 N   0  0  0  0  0
   -0.6199   -0.8580    1.1021 C   0  0  0  0  0
   -0.3778   -2.3185    0.6637 C   0  0  0  0  0
   -0.7600    1.3252   -0.0338 C   0  0  0  0  0
   -1.8824    1.1228   -1.0747 C   0  0  0  0  0
    3.2776    0.6360   -0.7029 H   0  0  0  0  0
    1.8370    1.3841   -1.4583 H   0  0  0  0  0
    2.0730   -0.3898   -1.5466 H   0  0  0  0  0
    1.5688    1.1878    1.0562 H   0  0  0  0  0
    1.8871   -0.5618    0.9173 H   0  0  0  0  0
   -1.7088   -0.7072    1.1392 H   0  0  0  0  0
   -0.2139   -0.6933    2.1121 H   0  0  0  0  0
   -0.7948   -2.4681   -0.3435 H   0  0  0  0  0
   -0.8805   -2.9996    1.3669 H   0  0  0  0  0
    0.6963   -2.5523    0.6463 H   0  0  0  0  0
   -0.1114    2.1303   -0.4093 H   0  0  0  0  0
   -1.1887    1.6473    0.9277 H   0  0  0  0  0
   -1.4373    0.8079   -2.0304 H   0  0  0  0  0
   -2.4198    2.0716   -1.2224 H   0  0  0  0  0
   -2.5963    0.3563   -0.7410 H   0  0  0  0  0
  1  2  1  0  0  0
  1  8  1  0  0  0
  1  9  1  0  0  0
  1 10  1  0  0  0
  2  3  1  0  0  0
  2 11  1  0  0  0
  2 12  1  0  0  0
  3  4  1  0  0  0
  3  6  1  0  0  0
  4  5  1  0  0  0
  4 13  1  0  0  0
  4 14  1  0  0  0
  5 15  1  0  0  0
  5 16  1  0  0  0
  5 17  1  0  0  0
  6  7  1  0  0  0
  6 18  1  0  0  0
  6 19  1  0  0  0
  7 20  1  0  0  0
  7 21  1  0  0  0
  7 22  1  0  0  0
M  END
$$$$
