N,N-Dimethylmethanamine
 OpenBabel06270619323D

 13 12  0  0  0  0  0  0  0  0999 V2000
    1.4071   -0.0046   -0.1003 C   0  0  0  0  0
   -0.0171   -0.2200   -0.4208 N   0  0  0  0  0
   -0.6691   -1.1081    0.5610 C   0  0  0  0  0
   -0.7424    1.0566   -0.5679 C   0  0  0  0  0
    1.5082    0.5048    0.8699 H   0  0  0  0  0
    1.9301   -0.9715   -0.0557 H   0  0  0  0  0
   -1.7110   -1.2948    0.2611 H   0  0  0  0  0
   -0.6588   -0.6469    1.5601 H   0  0  0  0  0
   -0.2655    1.6692   -1.3474 H   0  0  0  0  0
   -0.7353    1.6124    0.3818 H   0  0  0  0  0
    1.8765    0.6118   -0.8814 H   0  0  0  0  0
   -0.1387   -2.0710    0.6032 H   0  0  0  0  0
   -1.7841    0.8621   -0.8637 H   0  0  0  0  0
  1  2  1  0  0  0
  1  5  1  0  0  0
  1  6  1  0  0  0
  1 11  1  0  0  0
  2  3  1  0  0  0
  2  4  1  0  0  0
  3  7  1  0  0  0
  3  8  1  0  0  0
  3 12  1  0  0  0
  4  9  1  0  0  0
  4 10  1  0  0  0
  4 13  1  0  0  0
M  END
$$$$
