Piperidine
 OpenBabel06270619323D

 17 17  0  0  0  0  0  0  0  0999 V2000
    1.3463    0.4365   -0.2958 C   0  0  0  0  0
    0.1454    1.0168   -1.0710 C   0  0  0  0  0
    0.8749   -0.0750    1.0808 C   0  0  0  0  0
   -0.2366   -1.1248    0.8772 C   0  0  0  0  0
   -1.3946   -0.5022    0.0701 C   0  0  0  0  0
   -0.8940   -0.0163   -1.2281 N   0  0  0  0  0
    2.1125    1.2150   -0.1599 H   0  0  0  0  0
   -0.2635    1.8847   -0.5311 H   0  0  0  0  0
    1.7214   -0.5299    1.6176 H   0  0  0  0  0
    0.1681   -1.9859    0.3237 H   0  0  0  0  0
   -1.8408    0.3289    0.6378 H   0  0  0  0  0
    1.7784   -0.3976   -0.8695 H   0  0  0  0  0
    0.4844    1.3428   -2.0662 H   0  0  0  0  0
    0.4843    0.7663    1.6735 H   0  0  0  0  0
   -0.6071   -1.4675    1.8554 H   0  0  0  0  0
   -2.1643   -1.2697   -0.1035 H   0  0  0  0  0
   -1.7148    0.3779   -1.8111 H   0  0  0  0  0
  1  2  1  0  0  0
  1  3  1  0  0  0
  1  7  1  0  0  0
  1 12  1  0  0  0
  2  6  1  0  0  0
  2  8  1  0  0  0
  2 13  1  0  0  0
  3  4  1  0  0  0
  3  9  1  0  0  0
  3 14  1  0  0  0
  4  5  1  0  0  0
  4 10  1  0  0  0
  4 15  1  0  0  0
  5  6  1  0  0  0
  5 11  1  0  0  0
  5 16  1  0  0  0
  6 17  1  0  0  0
M  END
$$$$
