Acetonitrile
 OpenBabel06270619323D

  6  5  0  0  0  0  0  0  0  0999 V2000
    0.4957   -0.0080    0.0003 C   0  0  0  0  0
   -0.9621    0.0155   -0.0006 C   0  0  0  0  0
   -2.1199    0.0342   -0.0012 N   0  0  0  0  0
    0.8655    0.2297    1.0086 H   0  0  0  0  0
    0.8747    0.7372   -0.7146 H   0  0  0  0  0
    0.8462   -1.0087   -0.2925 H   0  0  0  0  0
  1  2  1  0  0  0
  1  4  1  0  0  0
  1  5  1  0  0  0
  1  6  1  0  0  0
  2  3  3  0  0  0
M  END
$$$$
