1-Butoxybutane
 OpenBabel06270619323D

 27 26  0  0  0  0  0  0  0  0999 V2000
    2.3193   -1.9994    2.4945 C   0  0  0  0  0
    1.2157   -1.0662    1.9523 C   0  0  0  0  0
    1.7471    0.3791    1.8270 C   0  0  0  0  0
    0.6427    1.3144    1.2910 C   0  0  0  0  0
    0.2312    0.8589   -0.0058 O   0  0  0  0  0
   -0.8024    1.6911   -0.5512 C   0  0  0  0  0
   -1.2067    1.1490   -1.9385 C   0  0  0  0  0
   -1.7418   -0.2954   -1.8179 C   0  0  0  0  0
   -2.1518   -0.8340   -3.2052 C   0  0  0  0  0
    3.1803   -1.9990    1.8094 H   0  0  0  0  0
    1.9255   -3.0235    2.5778 H   0  0  0  0  0
    2.6454   -1.6568    3.4880 H   0  0  0  0  0
    0.3575   -1.0850    2.6414 H   0  0  0  0  0
    0.8920   -1.4295    0.9649 H   0  0  0  0  0
    2.6018    0.3989    1.1337 H   0  0  0  0  0
    2.0756    0.7379    2.8144 H   0  0  0  0  0
    1.0446    2.3369    1.2222 H   0  0  0  0  0
   -0.2090    1.3055    1.9883 H   0  0  0  0  0
   -0.4360    2.7228   -0.6651 H   0  0  0  0  0
   -1.6834    1.6898    0.1086 H   0  0  0  0  0
   -0.3266    1.1622   -2.5993 H   0  0  0  0  0
   -1.9876    1.7969   -2.3652 H   0  0  0  0  0
   -2.6187   -0.3092   -1.1526 H   0  0  0  0  0
   -0.9607   -0.9467   -1.3969 H   0  0  0  0  0
   -2.9421   -0.2004   -3.6349 H   0  0  0  0  0
   -2.5303   -1.8621   -3.1024 H   0  0  0  0  0
   -1.2815   -0.8361   -3.8785 H   0  0  0  0  0
  1  2  1  0  0  0
  1 10  1  0  0  0
  1 11  1  0  0  0
  1 12  1  0  0  0
  2  3  1  0  0  0
  2 13  1  0  0  0
  2 14  1  0  0  0
  3  4  1  0  0  0
  3 15  1  0  0  0
  3 16  1  0  0  0
  4  5  1  0  0  0
  4 17  1  0  0  0
  4 18  1  0  0  0
  5  6  1  0  0  0
  6  7  1  0  0  0
  6 19  1  0  0  0
  6 20  1  0  0  0
  7  8  1  0  0  0
  7 21  1  0  0  0
  7 22  1  0  0  0
  8  9  1  0  0  0
  8 23  1  0  0  0
  8 24  1  0  0  0
  9 25  1  0  0  0
  9 26  1  0  0  0
  9 27  1  0  0  0
M  END
$$$$
