1-Propoxypropane
 OpenBabel06270619323D

 21 20  0  0  0  0  0  0  0  0999 V2000
   -1.9884    0.0638   -1.0423 H   0  0  0  0  0
   -2.4771   -0.0175   -2.0174 C   0  0  0  0  0
   -2.1615    0.8355   -2.6257 H   0  0  0  0  0
   -2.1191   -0.9323   -2.4993 H   0  0  0  0  0
   -3.9867   -0.0427   -1.8524 C   0  0  0  0  0
   -4.2762   -0.8807   -1.2099 H   0  0  0  0  0
   -4.3186    0.8609   -1.3308 H   0  0  0  0  0
   -4.7034   -0.1530   -3.1904 C   0  0  0  0  0
   -4.4528    0.7022   -3.8284 H   0  0  0  0  0
   -4.4093   -1.0749   -3.7051 H   0  0  0  0  0
   -6.1163   -0.1702   -2.9476 O   0  0  0  0  0
   -6.8641   -0.2692   -4.1670 C   0  0  0  0  0
   -6.6310    0.5876   -4.8094 H   0  0  0  0  0
   -6.5857   -1.1898   -4.6925 H   0  0  0  0  0
   -8.3463   -0.2861   -3.8228 C   0  0  0  0  0
   -8.5583   -1.1236   -3.1502 H   0  0  0  0  0
   -8.6036    0.6183   -3.2617 H   0  0  0  0  0
   -9.2167   -0.3886   -5.0631 C   0  0  0  0  0
   -9.0505    0.4616   -5.7316 H   0  0  0  0  0
   -9.0040   -1.3071   -5.6185 H   0  0  0  0  0
  -10.2748   -0.3985   -4.7862 H   0  0  0  0  0
  1  2  1  0  0  0
  2  3  1  0  0  0
  2  4  1  0  0  0
  2  5  1  0  0  0
  5  6  1  0  0  0
  5  7  1  0  0  0
  5  8  1  0  0  0
  8  9  1  0  0  0
  8 10  1  0  0  0
  8 11  1  0  0  0
 11 12  1  0  0  0
 12 13  1  0  0  0
 12 14  1  0  0  0
 12 15  1  0  0  0
 15 16  1  0  0  0
 15 17  1  0  0  0
 15 18  1  0  0  0
 18 19  1  0  0  0
 18 20  1  0  0  0
 18 21  1  0  0  0
M  END
$$$$
