2,2,2-Trifluoroacetic acid
 OpenBabel06270619323D

  8  7  0  0  0  0  0  0  0  0999 V2000
    0.7542   -0.0840    0.1795 C   0  0  0  0  0
   -0.5856    0.5571   -0.0664 C   0  0  0  0  0
   -0.7563    1.7577    0.0683 O   0  0  0  0  0
   -1.5859   -0.2430   -0.4397 O   0  0  0  0  0
    1.6574    0.8629    0.5499 F   0  0  0  0  0
    1.1802   -0.6934   -0.9596 F   0  0  0  0  0
    0.6383   -1.0094    1.1697 F   0  0  0  0  0
   -1.3024   -1.1479   -0.5018 H   0  0  0  0  0
  1  2  1  0  0  0
  1  5  1  0  0  0
  1  6  1  0  0  0
  1  7  1  0  0  0
  2  3  2  0  0  0
  2  4  1  0  0  0
  4  8  1  0  0  0
M  END
$$$$
