(2R)-2-Hydroxybutanedioic acid
 OpenBabel06270619323D

 15 14  0  0  0  0  0  0  0  0999 V2000
   -1.8036   -1.0580   -0.4040 O   0  0  0  0  0
   -2.0458   -0.0320   -1.0222 C   0  0  0  0  0
   -1.8743    1.2002   -0.4897 O   0  0  0  0  0
   -1.5465    1.1207    0.4305 H   0  0  0  0  0
   -2.5459    0.0678   -2.4435 C   0  0  0  0  0
   -3.4196    0.7296   -2.4501 H   0  0  0  0  0
   -1.7480    0.5325   -3.0319 H   0  0  0  0  0
   -2.9246   -1.3065   -3.0073 C   0  0  0  0  0
   -2.2062   -2.0846   -2.7254 H   0  0  0  0  0
   -4.1972   -1.6740   -2.4666 O   0  0  0  0  0
   -4.4052   -2.5718   -2.7802 H   0  0  0  0  0
   -3.0105   -1.2743   -4.5242 C   0  0  0  0  0
   -4.0118   -1.4976   -5.1890 O   0  0  0  0  0
   -1.8088   -1.0015   -5.0882 O   0  0  0  0  0
   -1.8914   -1.0044   -6.0652 H   0  0  0  0  0
  1  2  2  0  0  0
  2  3  1  0  0  0
  2  5  1  0  0  0
  3  4  1  0  0  0
  5  6  1  0  0  0
  5  7  1  0  0  0
  5  8  1  0  0  0
  8  9  1  0  0  0
  8 10  1  0  0  0
  8 12  1  0  0  0
 10 11  1  0  0  0
 12 13  2  0  0  0
 12 14  1  0  0  0
 14 15  1  0  0  0
M  END
$$$$
