(2S)-2-Hydroxypropanoic acid
 OpenBabel06270619323D

 12 11  0  0  0  0  0  0  0  0999 V2000
   -2.0313   -0.0307   -1.0293 H   0  0  0  0  0
   -2.5800   -0.0568   -1.9759 C   0  0  0  0  0
   -2.2102    0.7584   -2.6063 H   0  0  0  0  0
   -2.3397   -0.9908   -2.4928 H   0  0  0  0  0
   -4.0806    0.0633   -1.7554 C   0  0  0  0  0
   -4.4400   -0.7715   -1.1450 H   0  0  0  0  0
   -4.4265    1.3635   -1.0538 C   0  0  0  0  0
   -4.0504    1.6978    0.0601 O   0  0  0  0  0
   -5.2649    2.1231   -1.8001 O   0  0  0  0  0
   -5.4727    2.9537   -1.3225 H   0  0  0  0  0
   -4.7215    0.0054   -3.0315 O   0  0  0  0  0
   -5.2724    0.8039   -3.1147 H   0  0  0  0  0
  1  2  1  0  0  0
  2  3  1  0  0  0
  2  4  1  0  0  0
  2  5  1  0  0  0
  5  6  1  0  0  0
  5  7  1  0  0  0
  5 11  1  0  0  0
  7  8  2  0  0  0
  7  9  1  0  0  0
  9 10  1  0  0  0
 11 12  1  0  0  0
M  END
$$$$
