(2S,3S)-2,3-Dihydroxybutanedioic acid
 OpenBabel06270619323D

 16 15  0  0  0  0  0  0  0  0999 V2000
   -4.0424    0.0312   -2.7352 H   0  0  0  0  0
   -3.0282    0.0850   -2.3224 C   0  0  0  0  0
   -3.0930   -0.2069   -0.9208 O   0  0  0  0  0
   -3.5688   -1.0504   -0.8188 H   0  0  0  0  0
   -2.4330    1.4897   -2.5194 C   0  0  0  0  0
   -1.3779    1.5100   -2.2221 H   0  0  0  0  0
   -3.1517    2.4244   -1.7048 O   0  0  0  0  0
   -2.6909    3.2802   -1.7645 H   0  0  0  0  0
   -2.5665    1.9698   -3.9566 C   0  0  0  0  0
   -3.0121    1.3261   -4.8954 O   0  0  0  0  0
   -2.1004    3.2350   -4.0983 O   0  0  0  0  0
   -2.1876    3.5181   -5.0330 H   0  0  0  0  0
   -2.1632   -0.9951   -2.9540 C   0  0  0  0  0
   -1.1516   -0.8157   -3.6165 O   0  0  0  0  0
   -2.6644   -2.2314   -2.7120 O   0  0  0  0  0
   -2.0965   -2.9086   -3.1365 H   0  0  0  0  0
  1  2  1  0  0  0
  2  3  1  0  0  0
  2  5  1  0  0  0
  2 13  1  0  0  0
  3  4  1  0  0  0
  5  6  1  0  0  0
  5  7  1  0  0  0
  5  9  1  0  0  0
  7  8  1  0  0  0
  9 10  2  0  0  0
  9 11  1  0  0  0
 11 12  1  0  0  0
 13 14  2  0  0  0
 13 15  1  0  0  0
 15 16  1  0  0  0
M  END
$$$$
