(4Z,7Z,10Z,13Z,16Z,19Z)-Docosa-4,7,10,13,16,19-hexaenoic acid
 OpenBabel06270619323D

 56 55  0  0  0  0  0  0  0  0999 V2000
    8.4387    1.3209   -0.7062 C   0  0  0  0  0
    8.1135   -0.0402   -0.0567 C   0  0  0  0  0
    8.0980    0.1153    1.4422 C   0  0  0  0  0
    7.0584   -0.1787    2.2324 C   0  0  0  0  0
    5.7456   -0.7237    1.7381 C   0  0  0  0  0
    4.9928    0.3616    1.0168 C   0  0  0  0  0
    3.8448    0.1653    0.3578 C   0  0  0  0  0
    3.1328   -1.1570    0.2501 C   0  0  0  0  0
    1.7506   -0.9961    0.8241 C   0  0  0  0  0
    0.6522   -0.7102    0.1144 C   0  0  0  0  0
    0.6223   -0.4672   -1.3710 C   0  0  0  0  0
   -0.4048    0.5962   -1.6567 C   0  0  0  0  0
   -1.6340    0.3588   -2.1297 C   0  0  0  0  0
   -2.1819   -1.0141   -2.4145 C   0  0  0  0  0
   -3.6856   -0.9560   -2.4307 C   0  0  0  0  0
   -4.4424   -0.7181   -1.3527 C   0  0  0  0  0
   -3.9117   -0.4687    0.0345 C   0  0  0  0  0
   -4.2907    0.9297    0.4427 C   0  0  0  0  0
   -5.4563    1.2895    0.9951 C   0  0  0  0  0
   -6.6133    0.3689    1.2897 C   0  0  0  0  0
   -7.8953    0.9470    0.6518 C   0  0  0  0  0
   -9.0782    0.0563    0.9317 C   0  0  0  0  0
  -10.2565    0.4282    0.4286 O   0  0  0  0  0
   -8.9764   -0.9631    1.5942 O   0  0  0  0  0
    7.6675    2.0557   -0.4301 H   0  0  0  0  0
    8.4597    1.2122   -1.8010 H   0  0  0  0  0
    9.4204    1.6772   -0.3597 H   0  0  0  0  0
    8.8934   -0.7653   -0.3340 H   0  0  0  0  0
    7.1505   -0.3882   -0.4552 H   0  0  0  0  0
    9.0006    0.5017    1.9151 H   0  0  0  0  0
    7.1648   -0.0074    3.3036 H   0  0  0  0  0
    5.1552   -1.0596    2.6039 H   0  0  0  0  0
    5.9280   -1.5864    1.0805 H   0  0  0  0  0
    5.4055    1.3701    1.0334 H   0  0  0  0  0
    3.3848    1.0224   -0.1333 H   0  0  0  0  0
    3.6394   -1.9507    0.8160 H   0  0  0  0  0
    3.0993   -1.4688   -0.8032 H   0  0  0  0  0
    1.6408   -1.1272    1.9004 H   0  0  0  0  0
   -0.2945   -0.6500    0.6505 H   0  0  0  0  0
    0.3897   -1.4072   -1.8903 H   0  0  0  0  0
    1.5869   -0.0952   -1.7438 H   0  0  0  0  0
   -0.1203    1.6309   -1.4672 H   0  0  0  0  0
   -2.2818    1.2139   -2.3214 H   0  0  0  0  0
   -1.8569   -1.7513   -1.6659 H   0  0  0  0  0
   -1.8305   -1.3381   -3.4057 H   0  0  0  0  0
   -4.1889   -1.1099   -3.3851 H   0  0  0  0  0
   -5.5234   -0.6935   -1.4879 H   0  0  0  0  0
   -2.8174   -0.5474    0.0808 H   0  0  0  0  0
   -4.3226   -1.2162    0.7274 H   0  0  0  0  0
   -3.5544    1.7130    0.2628 H   0  0  0  0  0
   -5.5843    2.3420    1.2469 H   0  0  0  0  0
   -6.7496    0.3048    2.3798 H   0  0  0  0  0
   -6.4629   -0.6422    0.8885 H   0  0  0  0  0
   -7.7434    1.0285   -0.4355 H   0  0  0  0  0
   -8.0857    1.9489    1.0660 H   0  0  0  0  0
  -10.1924    1.2389   -0.0624 H   0  0  0  0  0
  1  2  1  0  0  0
  1 25  1  0  0  0
  1 26  1  0  0  0
  1 27  1  0  0  0
  2  3  1  0  0  0
  2 28  1  0  0  0
  2 29  1  0  0  0
  3  4  2  0  0  0
  3 30  1  0  0  0
  4  5  1  0  0  0
  4 31  1  0  0  0
  5  6  1  0  0  0
  5 32  1  0  0  0
  5 33  1  0  0  0
  6  7  2  0  0  0
  6 34  1  0  0  0
  7  8  1  0  0  0
  7 35  1  0  0  0
  8  9  1  0  0  0
  8 36  1  0  0  0
  8 37  1  0  0  0
  9 10  2  0  0  0
  9 38  1  0  0  0
 10 11  1  0  0  0
 10 39  1  0  0  0
 11 12  1  0  0  0
 11 40  1  0  0  0
 11 41  1  0  0  0
 12 13  2  0  0  0
 12 42  1  0  0  0
 13 14  1  0  0  0
 13 43  1  0  0  0
 14 15  1  0  0  0
 14 44  1  0  0  0
 14 45  1  0  0  0
 15 16  2  0  0  0
 15 46  1  0  0  0
 16 17  1  0  0  0
 16 47  1  0  0  0
 17 18  1  0  0  0
 17 48  1  0  0  0
 17 49  1  0  0  0
 18 19  2  0  0  0
 18 50  1  0  0  0
 19 20  1  0  0  0
 19 51  1  0  0  0
 20 21  1  0  0  0
 20 52  1  0  0  0
 20 53  1  0  0  0
 21 22  1  0  0  0
 21 54  1  0  0  0
 21 55  1  0  0  0
 22 23  1  0  0  0
 22 24  2  0  0  0
 23 56  1  0  0  0
M  END
$$$$
