(5Z,8Z,11Z,14Z)-Icosa-5,8,11,14-tetraenoic acid
 OpenBabel06270619323D

 54 53  0  0  0  0  0  0  0  0999 V2000
    2.8324   -4.3733    2.2860 O   0  0  0  0  0
    2.1418   -3.2533    2.0789 C   0  0  0  0  0
    2.6473   -2.1484    2.1968 O   0  0  0  0  0
    0.7044   -3.4440    1.6814 C   0  0  0  0  0
    0.0129   -2.0762    1.4884 C   0  0  0  0  0
   -1.4811   -2.2487    1.1336 C   0  0  0  0  0
   -1.6353   -3.0251   -0.1478 C   0  0  0  0  0
   -1.5502   -2.5148   -1.3829 C   0  0  0  0  0
    0.0492   -1.0380   -2.4522 C   0  0  0  0  0
    0.3105   -0.4622   -3.6332 C   0  0  0  0  0
    0.0202    1.5845   -4.9204 C   0  0  0  0  0
    0.3420    2.5634   -4.0664 C   0  0  0  0  0
    0.0625    2.5311   -2.5868 C   0  0  0  0  0
    1.3286    2.1777   -1.8549 C   0  0  0  0  0
    1.5021    2.3252   -0.5359 C   0  0  0  0  0
    0.4617    2.8557    0.4168 C   0  0  0  0  0
    0.2464    1.8357    1.5561 C   0  0  0  0  0
   -0.7919    2.3717    2.5686 C   0  0  0  0  0
   -1.1490    1.3296    3.6551 C   0  0  0  0  0
    0.0548    0.9751    4.5561 C   0  0  0  0  0
    3.7283   -4.1718    2.5307 H   0  0  0  0  0
    0.1857   -4.0108    2.4691 H   0  0  0  0  0
    0.6697   -4.0169    0.7429 H   0  0  0  0  0
    0.5230   -1.5240    0.6851 H   0  0  0  0  0
    0.0891   -1.5025    2.4242 H   0  0  0  0  0
   -1.9615   -1.2627    1.0611 H   0  0  0  0  0
   -1.9793   -2.8023    1.9439 H   0  0  0  0  0
   -1.8150   -4.0965   -0.0596 H   0  0  0  0  0
   -1.6744   -3.2020   -2.2196 H   0  0  0  0  0
    0.8805   -1.5351   -1.9525 H   0  0  0  0  0
    0.2813    1.7120   -5.9709 H   0  0  0  0  0
    0.8537    3.4406   -4.4618 H   0  0  0  0  0
   -0.7127    1.7961   -2.3319 H   0  0  0  0  0
   -0.2886    3.5316   -2.2943 H   0  0  0  0  0
    2.1519    1.7605   -2.4341 H   0  0  0  0  0
    2.4654    2.0350   -0.1171 H   0  0  0  0  0
   -0.5035    3.0309   -0.0777 H   0  0  0  0  0
    0.8210    3.8044    0.8431 H   0  0  0  0  0
    1.2096    1.6602    2.0568 H   0  0  0  0  0
   -0.1162    0.8923    1.1230 H   0  0  0  0  0
   -1.7164    2.6218    2.0260 H   0  0  0  0  0
   -0.4041    3.2842    3.0464 H   0  0  0  0  0
   -1.5357    0.4147    3.1813 H   0  0  0  0  0
   -1.9391    1.7573    4.2914 H   0  0  0  0  0
    0.8310    0.4462    3.9850 H   0  0  0  0  0
   -0.2881    0.3195    5.3706 H   0  0  0  0  0
    0.4812    1.8919    4.9900 H   0  0  0  0  0
   -1.2726   -1.0755   -1.7309 C   0  0  0  0  0
   -0.6491    0.3011   -4.5099 C   0  0  0  0  0
    1.3310   -0.5497   -4.0054 H   0  0  0  0  0
   -2.1125   -0.7195   -2.3400 H   0  0  0  0  0
   -1.1876   -0.4320   -0.8463 H   0  0  0  0  0
   -1.6145    0.5343   -4.0440 H   0  0  0  0  0
   -0.8404   -0.2990   -5.4121 H   0  0  0  0  0
  1  2  1  0  0  0
  1 21  1  0  0  0
  2  3  2  0  0  0
  2  4  1  0  0  0
  4  5  1  0  0  0
  4 22  1  0  0  0
  4 23  1  0  0  0
  5  6  1  0  0  0
  5 24  1  0  0  0
  5 25  1  0  0  0
  6  7  1  0  0  0
  6 26  1  0  0  0
  6 27  1  0  0  0
  7  8  2  0  0  0
  7 28  1  0  0  0
  8 29  1  0  0  0
 48  8  1  0  0  0
  9 10  2  0  0  0
  9 30  1  0  0  0
  9 48  1  0  0  0
 10 49  1  0  0  0
 10 50  1  0  0  0
 11 12  2  0  0  0
 11 31  1  0  0  0
 49 11  1  0  0  0
 12 13  1  0  0  0
 12 32  1  0  0  0
 13 14  1  0  0  0
 13 33  1  0  0  0
 13 34  1  0  0  0
 14 15  2  0  0  0
 14 35  1  0  0  0
 15 16  1  0  0  0
 15 36  1  0  0  0
 16 17  1  0  0  0
 16 37  1  0  0  0
 16 38  1  0  0  0
 17 18  1  0  0  0
 17 39  1  0  0  0
 17 40  1  0  0  0
 18 19  1  0  0  0
 18 41  1  0  0  0
 18 42  1  0  0  0
 19 20  1  0  0  0
 19 43  1  0  0  0
 19 44  1  0  0  0
 20 45  1  0  0  0
 20 46  1  0  0  0
 20 47  1  0  0  0
 48 51  1  0  0  0
 48 52  1  0  0  0
 49 53  1  0  0  0
 49 54  1  0  0  0
M  END
$$$$
