(6Z,9Z,12Z)-Octadeca-6,9,12-trienoic acid
 OpenBabel06270619323D

 50 49  0  0  0  0  0  0  0  0999 V2000
    4.0726   -0.3912   -3.6026 C   0  0  0  0  0
    2.9018   -0.7299   -2.6556 C   0  0  0  0  0
    3.3032   -0.4667   -1.1869 C   0  0  0  0  0
    2.1254   -0.8065   -0.2477 C   0  0  0  0  0
    2.5017   -0.5364    1.2250 C   0  0  0  0  0
    1.3323   -0.9186    2.0949 C   0  0  0  0  0
    0.5746   -0.0721    2.8032 C   0  0  0  0  0
    0.7588    1.4209    2.8634 C   0  0  0  0  0
    0.2554    2.0332    1.5833 C   0  0  0  0  0
   -0.9356    2.6248    1.4338 C   0  0  0  0  0
   -1.9694    2.7606    2.5204 C   0  0  0  0  0
   -2.3393    1.4289    3.1182 C   0  0  0  0  0
   -2.8560    0.4025    2.4318 C   0  0  0  0  0
   -3.1550    0.4119    0.9558 C   0  0  0  0  0
   -2.2012   -0.5701    0.2414 C   0  0  0  0  0
   -2.4810   -0.5848   -1.2781 C   0  0  0  0  0
   -1.5568   -1.6004   -1.9867 C   0  0  0  0  0
   -1.7760   -1.5625   -3.4768 C   0  0  0  0  0
   -0.9519   -1.0619   -4.2244 O   0  0  0  0  0
   -2.9089   -2.0787   -3.9570 O   0  0  0  0  0
    3.7704   -0.5842   -4.6430 H   0  0  0  0  0
    4.9449   -1.0161   -3.3589 H   0  0  0  0  0
    4.3450    0.6697   -3.4975 H   0  0  0  0  0
    2.6328   -1.7900   -2.7801 H   0  0  0  0  0
    2.0339   -0.1058   -2.9185 H   0  0  0  0  0
    3.5724    0.5938   -1.0668 H   0  0  0  0  0
    4.1710   -1.0914   -0.9261 H   0  0  0  0  0
    1.8553   -1.8669   -0.3667 H   0  0  0  0  0
    1.2599   -0.1820   -0.5131 H   0  0  0  0  0
    2.7826    0.5196    1.3316 H   0  0  0  0  0
    3.3668   -1.1578    1.5016 H   0  0  0  0  0
    1.0702   -1.9758    2.1315 H   0  0  0  0  0
   -0.2564   -0.4967    3.3656 H   0  0  0  0  0
    1.8172    1.6820    3.0057 H   0  0  0  0  0
    0.2102    1.8101    3.7322 H   0  0  0  0  0
    0.9059    1.9925    0.7106 H   0  0  0  0  0
   -1.1725    3.0403    0.4544 H   0  0  0  0  0
   -2.8768    3.2272    2.1085 H   0  0  0  0  0
   -1.5753    3.4226    3.3060 H   0  0  0  0  0
   -2.1816    1.2942    4.1882 H   0  0  0  0  0
   -3.0782   -0.5131    2.9792 H   0  0  0  0  0
   -3.0446    1.4126    0.5176 H   0  0  0  0  0
   -4.1941    0.0820    0.8064 H   0  0  0  0  0
   -2.3482   -1.5804    0.6524 H   0  0  0  0  0
   -1.1617   -0.2574    0.4203 H   0  0  0  0  0
   -2.2962    0.4181   -1.6923 H   0  0  0  0  0
   -3.5332   -0.8560   -1.4504 H   0  0  0  0  0
   -1.7473   -2.6132   -1.6000 H   0  0  0  0  0
   -0.5087   -1.3389   -1.7812 H   0  0  0  0  0
   -3.4580   -2.4419   -3.2725 H   0  0  0  0  0
  1  2  1  0  0  0
  1 21  1  0  0  0
  1 22  1  0  0  0
  1 23  1  0  0  0
  2  3  1  0  0  0
  2 24  1  0  0  0
  2 25  1  0  0  0
  3  4  1  0  0  0
  3 26  1  0  0  0
  3 27  1  0  0  0
  4  5  1  0  0  0
  4 28  1  0  0  0
  4 29  1  0  0  0
  5  6  1  0  0  0
  5 30  1  0  0  0
  5 31  1  0  0  0
  6  7  2  0  0  0
  6 32  1  0  0  0
  7  8  1  0  0  0
  7 33  1  0  0  0
  8  9  1  0  0  0
  8 34  1  0  0  0
  8 35  1  0  0  0
  9 10  2  0  0  0
  9 36  1  0  0  0
 10 11  1  0  0  0
 10 37  1  0  0  0
 11 12  1  0  0  0
 11 38  1  0  0  0
 11 39  1  0  0  0
 12 13  2  0  0  0
 12 40  1  0  0  0
 13 14  1  0  0  0
 13 41  1  0  0  0
 14 15  1  0  0  0
 14 42  1  0  0  0
 14 43  1  0  0  0
 15 16  1  0  0  0
 15 44  1  0  0  0
 15 45  1  0  0  0
 16 17  1  0  0  0
 16 46  1  0  0  0
 16 47  1  0  0  0
 17 18  1  0  0  0
 17 48  1  0  0  0
 17 49  1  0  0  0
 18 19  2  0  0  0
 18 20  1  0  0  0
 20 50  1  0  0  0
M  END
$$$$
