(9Z,12Z,15Z)-Octadeca-9,12,15-trienoic acid
 OpenBabel06270619323D

 50 49  0  0  0  0  0  0  0  0999 V2000
    8.4275   -0.4508   -0.8499 C   0  0  0  0  0
    7.4313   -1.6287   -0.8610 C   0  0  0  0  0
    6.6350   -1.6261    0.4174 C   0  0  0  0  0
    5.4612   -1.0081    0.5995 C   0  0  0  0  0
    4.3179    1.1053    0.2424 C   0  0  0  0  0
    3.0801    1.6156    0.2533 C   0  0  0  0  0
    1.8813    1.0101   -0.4263 C   0  0  0  0  0
    1.2634   -0.0046    0.4989 C   0  0  0  0  0
    0.2406    0.2326    1.3295 C   0  0  0  0  0
   -1.6685    1.6790    0.5648 C   0  0  0  0  0
   -2.7196    0.5901    0.8780 C   0  0  0  0  0
   -3.9580    0.7676   -0.0285 C   0  0  0  0  0
   -5.0087   -0.3224    0.2794 C   0  0  0  0  0
   -6.2472   -0.1443   -0.6269 C   0  0  0  0  0
   -7.2982   -1.2337   -0.3201 C   0  0  0  0  0
   -8.5073   -1.0678   -1.1981 C   0  0  0  0  0
   -9.4774   -1.9615   -1.0124 O   0  0  0  0  0
   -8.5973   -0.1753   -2.0261 O   0  0  0  0  0
    9.0251   -0.4630   -1.7738 H   0  0  0  0  0
    9.0988   -0.5417    0.0172 H   0  0  0  0  0
    7.8798    0.5013   -0.7852 H   0  0  0  0  0
    7.9952   -2.5720   -0.9229 H   0  0  0  0  0
    6.7841   -1.5646   -1.7471 H   0  0  0  0  0
    7.0546   -2.1706    1.2632 H   0  0  0  0  0
    5.0946    1.6587    0.7701 H   0  0  0  0  0
    2.9216    2.5418    0.8054 H   0  0  0  0  0
    2.1588    0.5217   -1.3711 H   0  0  0  0  0
    1.1744    1.8122   -0.6803 H   0  0  0  0  0
    1.6856   -1.0092    0.4919 H   0  0  0  0  0
   -0.4439    1.5635    1.5003 C   0  0  0  0  0
   -1.3406    1.5810   -0.4811 H   0  0  0  0  0
   -2.1238    2.6713    0.7051 H   0  0  0  0  0
   -3.0256    0.6694    1.9323 H   0  0  0  0  0
   -2.2875   -0.4061    0.7009 H   0  0  0  0  0
   -3.6515    0.6914   -1.0829 H   0  0  0  0  0
   -4.4005    1.7600    0.1473 H   0  0  0  0  0
   -5.3146   -0.2466    1.3340 H   0  0  0  0  0
   -4.5674   -1.3151    0.1026 H   0  0  0  0  0
   -5.9422   -0.2210   -1.6818 H   0  0  0  0  0
   -6.6902    0.8477   -0.4497 H   0  0  0  0  0
   -7.6064   -1.1598    0.7337 H   0  0  0  0  0
   -6.8594   -2.2272   -0.4969 H   0  0  0  0  0
  -10.2041   -1.7917   -1.6008 H   0  0  0  0  0
    4.7359   -0.1778   -0.4270 C   0  0  0  0  0
    4.9870   -1.1059    1.5759 H   0  0  0  0  0
   -0.1198   -0.5982    1.9359 H   0  0  0  0  0
    0.2480    2.3927    1.2943 H   0  0  0  0  0
   -0.7767    1.6579    2.5450 H   0  0  0  0  0
    3.8821   -0.7661   -0.7874 H   0  0  0  0  0
    5.3725    0.0889   -1.2809 H   0  0  0  0  0
  1  2  1  0  0  0
  1 19  1  0  0  0
  1 20  1  0  0  0
  1 21  1  0  0  0
  2  3  1  0  0  0
  2 22  1  0  0  0
  2 23  1  0  0  0
  3  4  2  0  0  0
  3 24  1  0  0  0
  4 44  1  0  0  0
  4 45  1  0  0  0
  5  6  2  0  0  0
  5 25  1  0  0  0
 44  5  1  0  0  0
  6  7  1  0  0  0
  6 26  1  0  0  0
  7  8  1  0  0  0
  7 27  1  0  0  0
  7 28  1  0  0  0
  8  9  2  0  0  0
  8 29  1  0  0  0
  9 30  1  0  0  0
  9 46  1  0  0  0
 10 11  1  0  0  0
 10 31  1  0  0  0
 10 32  1  0  0  0
 30 10  1  0  0  0
 11 12  1  0  0  0
 11 33  1  0  0  0
 11 34  1  0  0  0
 12 13  1  0  0  0
 12 35  1  0  0  0
 12 36  1  0  0  0
 13 14  1  0  0  0
 13 37  1  0  0  0
 13 38  1  0  0  0
 14 15  1  0  0  0
 14 39  1  0  0  0
 14 40  1  0  0  0
 15 16  1  0  0  0
 15 41  1  0  0  0
 15 42  1  0  0  0
 16 17  1  0  0  0
 16 18  2  0  0  0
 17 43  1  0  0  0
 30 47  1  0  0  0
 30 48  1  0  0  0
 44 49  1  0  0  0
 44 50  1  0  0  0
M  END
$$$$
