(9Z,12Z)-Octadeca-9,12-dienoic acid
 OpenBabel06270619323D

 52 51  0  0  0  0  0  0  0  0999 V2000
    4.1771    4.0716   -0.0938 C   0  0  0  0  0
    3.0889    3.0417   -0.4660 C   0  0  0  0  0
    2.9772    1.9613    0.6342 C   0  0  0  0  0
    1.8014    0.9860    0.3865 C   0  0  0  0  0
    3.2389   -0.5591   -0.9981 C   0  0  0  0  0
    3.3995   -1.8429   -0.6550 C   0  0  0  0  0
    2.3027   -2.7191   -0.1114 C   0  0  0  0  0
    1.4963   -3.2860   -1.2485 C   0  0  0  0  0
    0.3459   -3.9526   -1.0926 C   0  0  0  0  0
   -1.6481   -3.4991    0.3551 C   0  0  0  0  0
   -1.4303   -1.9714    0.2805 C   0  0  0  0  0
   -2.7670   -1.2178    0.4533 C   0  0  0  0  0
   -2.5258    0.3063    0.3728 C   0  0  0  0  0
   -3.8568    1.0713    0.5439 C   0  0  0  0  0
   -3.6139    2.5940    0.4638 C   0  0  0  0  0
   -4.9133    3.3256    0.6497 C   0  0  0  0  0
   -5.8395    3.1079   -0.2826 O   0  0  0  0  0
   -5.1079    4.0670    1.5997 O   0  0  0  0  0
   -0.3024   -4.2489    0.2353 C   0  0  0  0  0
    1.9303    0.1840   -0.9293 C   0  0  0  0  0
    3.9180    4.5684    0.8532 H   0  0  0  0  0
    4.2520    4.8291   -0.8883 H   0  0  0  0  0
    5.1484    3.5662    0.0151 H   0  0  0  0  0
    3.3648    2.5829   -1.4267 H   0  0  0  0  0
    2.1245    3.5610   -0.5749 H   0  0  0  0  0
    2.7977    2.4616    1.5981 H   0  0  0  0  0
    3.9226    1.4025    0.7023 H   0  0  0  0  0
    0.8572    1.5517    0.3664 H   0  0  0  0  0
    1.7658    0.2763    1.2269 H   0  0  0  0  0
    4.1103   -0.0176   -1.3655 H   0  0  0  0  0
    4.3885   -2.2852   -0.7736 H   0  0  0  0  0
    1.6656   -2.1377    0.5691 H   0  0  0  0  0
    2.7612   -3.5421    0.4572 H   0  0  0  0  0
    1.8721   -3.1443   -2.2616 H   0  0  0  0  0
   -0.1604   -4.3120   -1.9882 H   0  0  0  0  0
   -2.3164   -3.8155   -0.4603 H   0  0  0  0  0
   -2.1130   -3.7553    1.3193 H   0  0  0  0  0
   -1.0016   -1.7129   -0.6987 H   0  0  0  0  0
   -0.7366   -1.6607    1.0761 H   0  0  0  0  0
   -3.2048   -1.4680    1.4316 H   0  0  0  0  0
   -3.4637   -1.5219   -0.3427 H   0  0  0  0  0
   -2.0856    0.5555   -0.6048 H   0  0  0  0  0
   -1.8275    0.6075    1.1686 H   0  0  0  0  0
   -4.2978    0.8285    1.5227 H   0  0  0  0  0
   -4.5564    0.7710   -0.2510 H   0  0  0  0  0
   -3.1894    2.8504   -0.5186 H   0  0  0  0  0
   -2.9065    2.8968    1.2506 H   0  0  0  0  0
   -6.6280    3.6023   -0.0906 H   0  0  0  0  0
    0.3403   -3.9730    1.0830 H   0  0  0  0  0
   -0.4973   -5.3305    0.2922 H   0  0  0  0  0
    1.0862   -0.5158   -0.9916 H   0  0  0  0  0
    1.8565    0.8606   -1.7930 H   0  0  0  0  0
  1  2  1  0  0  0
  1 21  1  0  0  0
  1 22  1  0  0  0
  1 23  1  0  0  0
  2  3  1  0  0  0
  2 24  1  0  0  0
  2 25  1  0  0  0
  3  4  1  0  0  0
  3 26  1  0  0  0
  3 27  1  0  0  0
  4 20  1  0  0  0
  4 28  1  0  0  0
  4 29  1  0  0  0
  5  6  2  0  0  0
  5 20  1  0  0  0
  5 30  1  0  0  0
  6  7  1  0  0  0
  6 31  1  0  0  0
  7  8  1  0  0  0
  7 32  1  0  0  0
  7 33  1  0  0  0
  8  9  2  0  0  0
  8 34  1  0  0  0
  9 19  1  0  0  0
  9 35  1  0  0  0
 10 11  1  0  0  0
 19 10  1  0  0  0
 10 36  1  0  0  0
 10 37  1  0  0  0
 11 12  1  0  0  0
 11 38  1  0  0  0
 11 39  1  0  0  0
 12 13  1  0  0  0
 12 40  1  0  0  0
 12 41  1  0  0  0
 13 14  1  0  0  0
 13 42  1  0  0  0
 13 43  1  0  0  0
 14 15  1  0  0  0
 14 44  1  0  0  0
 14 45  1  0  0  0
 15 16  1  0  0  0
 15 46  1  0  0  0
 15 47  1  0  0  0
 16 17  1  0  0  0
 16 18  2  0  0  0
 17 48  1  0  0  0
 19 49  1  0  0  0
 19 50  1  0  0  0
 20 51  1  0  0  0
 20 52  1  0  0  0
M  END
$$$$
