Dodecanoic acid
 OpenBabel06270619323D

 38 37  0  0  0  0  0  0  0  0999 V2000
   -0.6860   -1.6824   -0.5686 C   0  0  0  0  0
   -0.7824   -3.0460    0.1513 C   0  0  0  0  0
   -1.4334   -4.0966   -0.7757 C   0  0  0  0  0
   -1.5303   -5.4603   -0.0570 C   0  0  0  0  0
   -2.1629   -6.4890   -0.9524 C   0  0  0  0  0
   -2.5330   -6.2306   -2.0866 O   0  0  0  0  0
   -2.2936   -7.7052   -0.4251 O   0  0  0  0  0
   -1.6957   -1.3458   -0.8490 H   0  0  0  0  0
   -0.0772   -1.7928   -1.4789 H   0  0  0  0  0
   -0.0350   -0.6316    0.3582 C   0  0  0  0  0
   -1.3912   -2.9356    1.0616 H   0  0  0  0  0
    0.2273   -3.3827    0.4317 H   0  0  0  0  0
   -0.8243   -4.2084   -1.6859 H   0  0  0  0  0
   -2.4438   -3.7611   -1.0556 H   0  0  0  0  0
   -2.1393   -5.3529    0.8532 H   0  0  0  0  0
   -0.5219   -5.7997    0.2237 H   0  0  0  0  0
   -2.6995   -8.2969   -1.0482 H   0  0  0  0  0
    0.0614    0.7319   -0.3617 C   0  0  0  0  0
    0.9747   -0.9682    0.6387 H   0  0  0  0  0
   -0.6438   -0.5212    1.2686 H   0  0  0  0  0
    0.7123    1.7827    0.5652 C   0  0  0  0  0
   -0.9483    1.0685   -0.6421 H   0  0  0  0  0
    0.6701    0.6215   -1.2720 H   0  0  0  0  0
    0.8088    3.1462   -0.1547 C   0  0  0  0  0
    1.7221    1.4461    0.8456 H   0  0  0  0  0
    0.1036    1.8931    1.4755 H   0  0  0  0  0
    1.4597    4.1970    0.7721 C   0  0  0  0  0
   -0.2009    3.4829   -0.4351 H   0  0  0  0  0
    1.4175    3.0359   -1.0651 H   0  0  0  0  0
    2.4696    3.8608    1.0525 H   0  0  0  0  0
    0.8511    4.3079    1.6824 H   0  0  0  0  0
    1.5561    5.5605    0.0521 C   0  0  0  0  0
    2.2062    6.6123    0.9762 C   0  0  0  0  0
    0.5477    5.9017   -0.2282 H   0  0  0  0  0
    2.1661    5.4548   -0.8580 H   0  0  0  0  0
    3.2204    6.2899    1.2560 H   0  0  0  0  0
    1.6007    6.7372    1.8864 H   0  0  0  0  0
    2.2673    7.5762    0.4490 H   0  0  0  0  0
  1  2  1  0  0  0
  1  8  1  0  0  0
  1  9  1  0  0  0
  1 10  1  0  0  0
  2  3  1  0  0  0
  2 11  1  0  0  0
  2 12  1  0  0  0
  3  4  1  0  0  0
  3 13  1  0  0  0
  3 14  1  0  0  0
  4  5  1  0  0  0
  4 15  1  0  0  0
  4 16  1  0  0  0
  5  6  2  0  0  0
  5  7  1  0  0  0
  7 17  1  0  0  0
 10 18  1  0  0  0
 10 19  1  0  0  0
 10 20  1  0  0  0
 18 21  1  0  0  0
 18 22  1  0  0  0
 18 23  1  0  0  0
 21 24  1  0  0  0
 21 25  1  0  0  0
 21 26  1  0  0  0
 24 27  1  0  0  0
 24 28  1  0  0  0
 24 29  1  0  0  0
 27 30  1  0  0  0
 27 31  1  0  0  0
 27 32  1  0  0  0
 32 33  1  0  0  0
 32 34  1  0  0  0
 32 35  1  0  0  0
 33 36  1  0  0  0
 33 37  1  0  0  0
 33 38  1  0  0  0
M  END
$$$$
